<?xml version="1.0" encoding="UTF-8"?>

<!-- generated on 2026-05-19T13:02:12.425652+01:00 by Eclipse SUMO netedit 1.26.0
<neteditConfiguration xmlns:xsi="http://www.w3.org/2001/XMLSchema-instance" xsi:noNamespaceSchemaLocation="http://sumo.dlr.de/xsd/neteditConfiguration.xsd">

    <input>
        <sumo-net-file value="/home/miguel/6.Projects/BayesianFinalProject/sumo/networks/1st.net.xml"/>
    </input>

    <output>
        <output-file value="/home/miguel/6.Projects/BayesianFinalProject/sumo/networks/1st.net.xml"/>
    </output>

    <processing>
        <geometry.min-radius.fix.railways value="false"/>
        <geometry.avoid-overlap value="false"/>
        <geometry.max-grade.fix value="false"/>
        <offset.disable-normalization value="true"/>
        <lefthand value="0"/>
    </processing>

    <junctions>
        <no-turnarounds value="true"/>
        <junctions.corner-detail value="5"/>
        <junctions.limit-turn-speed value="5.50"/>
        <rectangular-lane-cut value="0"/>
    </junctions>

    <pedestrian>
        <walkingareas value="0"/>
    </pedestrian>

</neteditConfiguration>
-->

<net version="1.20" junctionCornerDetail="5" limitTurnSpeed="5.50" avoidOverlap="0" xmlns:xsi="http://www.w3.org/2001/XMLSchema-instance" xsi:noNamespaceSchemaLocation="http://sumo.dlr.de/xsd/net_file.xsd">

    <location netOffset="0.00,0.00" convBoundary="-100.00,0.00,300.00,400.00" origBoundary="-10000000000.00,-10000000000.00,10000000000.00,10000000000.00" projParameter="!"/>

    <edge id=":2_0" function="internal">
        <lane id=":2_0_0" index="0" speed="8.00" length="14.19" shape="-1.60,7.20 -1.05,3.35 0.60,0.60 3.35,-1.05 7.20,-1.60"/>
    </edge>
    <edge id=":2_1" function="internal">
        <lane id=":2_1_0" index="0" speed="6.51" length="9.03" shape="7.20,1.60 4.75,1.95 3.00,3.00 1.95,4.75 1.60,7.20"/>
    </edge>
    <edge id=":2_2" function="internal">
        <lane id=":2_2_0" index="0" speed="13.89" length="14.40" shape="-7.20,-1.60 7.20,-1.60"/>
    </edge>
    <edge id=":2_3" function="internal">
        <lane id=":2_3_0" index="0" speed="8.00" length="10.30" shape="-7.20,-1.60 -3.35,-1.05 -0.60,0.60 1.05,3.35"/>
    </edge>
    <edge id=":2_4" function="internal">
        <lane id=":2_4_0" index="0" speed="8.00" length="3.89" shape="1.05,3.35 1.60,7.20"/>
    </edge>
    <edge id=":3_0" function="internal">
        <lane id=":3_0_0" index="0" speed="9.05" length="11.91" shape="105.98,1.60 103.57,2.06 101.32,3.43 99.24,5.72 97.33,8.92"/>
    </edge>
    <edge id=":3_1" function="internal">
        <lane id=":3_1_0" index="0" speed="13.89" length="15.16" shape="105.98,1.60 90.82,1.60"/>
    </edge>
    <edge id=":3_2" function="internal">
        <lane id=":3_2_0" index="0" speed="13.89" length="15.16" shape="90.82,-1.60 105.98,-1.60"/>
    </edge>
    <edge id=":3_3" function="internal">
        <lane id=":3_3_0" index="0" speed="7.44" length="4.86" shape="90.82,-1.60 95.64,-0.94"/>
    </edge>
    <edge id=":3_6" function="internal">
        <lane id=":3_6_0" index="0" speed="7.44" length="11.54" shape="95.64,-0.94 98.33,1.03 98.89,4.32 97.33,8.92"/>
    </edge>
    <edge id=":3_4" function="internal">
        <lane id=":3_4_0" index="0" speed="5.74" length="9.18" shape="94.46,7.49 95.34,4.91 95.03,3.07 93.52,1.97 90.82,1.60"/>
    </edge>
    <edge id=":3_5" function="internal">
        <lane id=":3_5_0" index="0" speed="10.24" length="15.45" shape="94.46,7.49 96.89,3.51 99.62,0.67 102.65,-1.03 105.98,-1.60"/>
    </edge>
    <edge id=":4_0" function="internal">
        <lane id=":4_0_0" index="0" speed="8.07" length="10.90" shape="206.31,1.60 203.91,2.03 201.87,3.33 200.18,5.49 198.85,8.51"/>
    </edge>
    <edge id=":4_1" function="internal">
        <lane id=":4_1_0" index="0" speed="13.89" length="14.75" shape="206.31,1.60 191.56,1.60"/>
    </edge>
    <edge id=":4_2" function="internal">
        <lane id=":4_2_0" index="0" speed="13.89" length="14.75" shape="191.56,-1.60 206.31,-1.60"/>
    </edge>
    <edge id=":4_3" function="internal">
        <lane id=":4_3_0" index="0" speed="7.55" length="4.50" shape="191.56,-1.60 196.01,-0.97"/>
    </edge>
    <edge id=":4_6" function="internal">
        <lane id=":4_6_0" index="0" speed="7.55" length="11.09" shape="196.01,-0.97 198.71,0.93 199.66,4.09 198.85,8.51"/>
    </edge>
    <edge id=":4_4" function="internal">
        <lane id=":4_4_0" index="0" speed="5.92" length="9.10" shape="195.81,7.50 196.28,4.92 195.73,3.08 194.16,1.97 191.56,1.60"/>
    </edge>
    <edge id=":4_5" function="internal">
        <lane id=":4_5_0" index="0" speed="9.35" length="14.92" shape="195.81,7.50 197.61,3.52 199.95,0.68 202.85,-1.03 206.31,-1.60"/>
    </edge>
    <edge id=":6_0" function="internal">
        <lane id=":6_0_0" index="0" speed="13.89" length="24.09" shape="3.33,205.59 1.08,201.16 -0.42,194.47 -1.25,187.52 -1.51,182.26"/>
    </edge>
    <edge id=":6_1" function="internal">
        <lane id=":6_1_0" index="0" speed="11.65" length="4.90" shape="3.33,205.59 1.55,202.23 1.53,201.13"/>
    </edge>
    <edge id=":6_6" function="internal">
        <lane id=":6_6_0" index="0" speed="11.65" length="18.65" shape="1.53,201.13 1.49,197.40 3.14,191.13 6.51,183.40"/>
    </edge>
    <edge id=":6_2" function="internal">
        <lane id=":6_2_0" index="0" speed="10.67" length="19.64" shape="9.38,184.83 6.35,191.55 4.71,196.88 4.46,200.81 5.59,203.33"/>
    </edge>
    <edge id=":6_3" function="internal">
        <lane id=":6_3_0" index="0" speed="6.26" length="15.29" shape="9.38,184.83 6.50,187.64 2.89,187.96 -0.20,186.06 -1.51,182.26"/>
    </edge>
    <edge id=":6_4" function="internal">
        <lane id=":6_4_0" index="0" speed="5.60" length="11.85" shape="1.69,182.26 1.99,186.37 2.90,187.93 4.41,186.94 6.51,183.40"/>
    </edge>
    <edge id=":6_5" function="internal">
        <lane id=":6_5_0" index="0" speed="13.89" length="21.72" shape="1.69,182.26 1.80,187.16 2.32,193.34 3.49,199.25 5.59,203.33"/>
    </edge>
    <edge id=":7_0" function="internal">
        <lane id=":7_0_0" index="0" speed="9.05" length="11.91" shape="104.42,291.80 103.51,295.42 103.36,298.51 103.98,301.07 105.36,303.10"/>
    </edge>
    <edge id=":7_1" function="internal">
        <lane id=":7_1_0" index="0" speed="7.44" length="16.40" shape="104.42,291.80 102.27,296.16 99.55,298.09 96.25,297.58 92.38,294.64"/>
    </edge>
    <edge id=":7_2" function="internal">
        <lane id=":7_2_0" index="0" speed="5.74" length="9.18" shape="94.64,292.38 96.81,294.03 98.66,294.31 100.18,293.23 101.38,290.79"/>
    </edge>
    <edge id=":7_3" function="internal">
        <lane id=":7_3_0" index="0" speed="13.89" length="15.16" shape="94.64,292.38 105.36,303.10"/>
    </edge>

    <edge id="E1_2_EB" from="1" to="2" priority="-1">
        <lane id="E1_2_EB_0" index="0" speed="13.89" length="92.80" shape="-100.00,-1.60 -7.20,-1.60"/>
    </edge>
    <edge id="E2_3_EB" from="2" to="3" priority="-1">
        <lane id="E2_3_EB_0" index="0" speed="13.89" length="83.62" shape="7.20,-1.60 90.82,-1.60"/>
    </edge>
    <edge id="E2_3_WB" from="3" to="2" priority="-1">
        <lane id="E2_3_WB_0" index="0" speed="13.89" length="83.62" shape="90.82,1.60 7.20,1.60"/>
    </edge>
    <edge id="E2_6_NB" from="2" to="6" priority="-1" shape="0.00,0.00 0.10,200.10">
        <lane id="E2_6_NB_0" index="0" speed="13.89" length="175.06" shape="1.60,7.20 1.69,182.26"/>
    </edge>
    <edge id="E2_6_SB" from="6" to="2" priority="-1" shape="0.10,200.10 0.00,0.00">
        <lane id="E2_6_SB_0" index="0" speed="13.89" length="175.06" shape="-1.51,182.26 -1.60,7.20"/>
    </edge>
    <edge id="E3_4_EB" from="3" to="4" priority="-1">
        <lane id="E3_4_EB_0" index="0" speed="13.89" length="85.58" shape="105.98,-1.60 191.56,-1.60"/>
    </edge>
    <edge id="E3_4_WB" from="4" to="3" priority="-1">
        <lane id="E3_4_WB_0" index="0" speed="13.89" length="85.58" shape="191.56,1.60 105.98,1.60"/>
    </edge>
    <edge id="E3_6_NWB" from="3" to="6" priority="-1">
        <lane id="E3_6_NWB_0" index="0" speed="13.89" length="196.67" shape="97.33,8.92 9.38,184.83"/>
    </edge>
    <edge id="E3_6_SEB" from="6" to="3" priority="-1">
        <lane id="E3_6_SEB_0" index="0" speed="13.89" length="196.67" shape="6.51,183.40 94.46,7.49"/>
    </edge>
    <edge id="E4_5_EB" from="4" to="5" priority="-1">
        <lane id="E4_5_EB_0" index="0" speed="13.89" length="93.69" shape="206.31,-1.60 300.00,-1.60"/>
    </edge>
    <edge id="E4_5_WB" from="5" to="4" priority="-1">
        <lane id="E4_5_WB_0" index="0" speed="13.89" length="93.69" shape="300.00,1.60 206.31,1.60"/>
    </edge>
    <edge id="E4_7_NWB" from="4" to="7" priority="-1">
        <lane id="E4_7_NWB_0" index="0" speed="13.89" length="298.61" shape="198.85,8.51 104.42,291.80"/>
    </edge>
    <edge id="E4_7_SEB" from="7" to="4" priority="-1">
        <lane id="E4_7_SEB_0" index="0" speed="13.89" length="298.61" shape="101.38,290.79 195.81,7.50"/>
    </edge>
    <edge id="E6_7_NEB" from="6" to="7" priority="-1">
        <lane id="E6_7_NEB_0" index="0" speed="13.89" length="125.94" shape="5.59,203.33 94.64,292.38"/>
    </edge>
    <edge id="E6_7_SWB" from="7" to="6" priority="-1">
        <lane id="E6_7_SWB_0" index="0" speed="13.89" length="125.94" shape="92.38,294.64 3.33,205.59"/>
    </edge>
    <edge id="E7_8_NEB" from="7" to="8" priority="-1">
        <lane id="E7_8_NEB_0" index="0" speed="13.89" length="135.44" shape="105.36,303.10 201.13,398.87"/>
    </edge>

    <junction id="1" type="dead_end" x="-100.00" y="0.00" incLanes="" intLanes="" shape="-100.00,0.00 -100.00,-3.20"/>
    <junction id="2" type="priority" x="0.00" y="0.00" incLanes="E2_6_SB_0 E2_3_WB_0 E1_2_EB_0" intLanes=":2_0_0 :2_1_0 :2_2_0 :2_4_0" shape="-3.20,7.20 3.20,7.20 3.65,4.98 4.20,4.20 4.98,3.64 5.98,3.31 7.20,3.20 7.20,-3.20 -7.20,-3.20 -7.20,0.00 -4.98,0.80 -4.20,1.80 -3.64,3.20 -3.31,5.00">
        <request index="0" response="1100" foes="1100" cont="0"/>
        <request index="1" response="0000" foes="1000" cont="0"/>
        <request index="2" response="0000" foes="0001" cont="0"/>
        <request index="3" response="0010" foes="0011" cont="1"/>
    </junction>
    <junction id="3" type="priority" x="100.00" y="0.00" incLanes="E3_4_WB_0 E2_3_EB_0 E3_6_SEB_0" intLanes=":3_0_0 :3_1_0 :3_2_0 :3_6_0 :3_4_0 :3_5_0" shape="105.98,3.20 105.98,-3.20 90.82,-3.20 90.82,3.20 92.85,3.60 93.38,4.09 93.58,4.79 93.47,5.68 93.03,6.78 98.76,9.64 99.85,7.67 100.99,6.06 102.17,4.81 103.40,3.92 104.67,3.38">
        <request index="0" response="000000" foes="001000" cont="0"/>
        <request index="1" response="000000" foes="111000" cont="0"/>
        <request index="2" response="000000" foes="100000" cont="0"/>
        <request index="3" response="000011" foes="100011" cont="1"/>
        <request index="4" response="000010" foes="000010" cont="0"/>
        <request index="5" response="001110" foes="001110" cont="0"/>
    </junction>
    <junction id="4" type="priority" x="200.00" y="0.00" incLanes="E4_5_WB_0 E3_4_EB_0 E4_7_SEB_0" intLanes=":4_0_0 :4_1_0 :4_2_0 :4_6_0 :4_4_0 :4_5_0" shape="206.31,3.20 206.31,-3.20 191.56,-3.20 191.56,3.20 193.64,3.62 194.24,4.15 194.55,4.89 194.57,5.84 194.30,6.99 200.37,9.02 201.89,5.79 202.82,4.65 203.87,3.85 205.03,3.36">
        <request index="0" response="000000" foes="001000" cont="0"/>
        <request index="1" response="000000" foes="111000" cont="0"/>
        <request index="2" response="000000" foes="100000" cont="0"/>
        <request index="3" response="000011" foes="100011" cont="1"/>
        <request index="4" response="000010" foes="000010" cont="0"/>
        <request index="5" response="001110" foes="001110" cont="0"/>
    </junction>
    <junction id="5" type="dead_end" x="300.00" y="0.00" incLanes="E4_5_EB_0" intLanes="" shape="300.00,0.00 300.00,-3.20 300.00,0.00"/>
    <junction id="6" type="priority" x="0.00" y="200.00" incLanes="E6_7_SWB_0 E3_6_NWB_0 E2_6_NB_0" intLanes=":6_0_0 :6_6_0 :6_2_0 :6_3_0 :6_4_0 :6_5_0" shape="2.20,206.72 6.72,202.20 5.92,199.09 6.33,196.62 7.28,193.54 8.77,189.85 10.81,185.54 5.08,182.68 3.29,182.26 -3.11,182.26 -3.33,187.80 -3.70,192.20 -3.77,195.87 -3.11,199.23 -1.27,202.71">
        <request index="0" response="000000" foes="001000" cont="0"/>
        <request index="1" response="110000" foes="111000" cont="1"/>
        <request index="2" response="100000" foes="100000" cont="0"/>
        <request index="3" response="100011" foes="100011" cont="0"/>
        <request index="4" response="000000" foes="000010" cont="0"/>
        <request index="5" response="000000" foes="001110" cont="0"/>
    </junction>
    <junction id="7" type="priority" x="100.00" y="300.00" incLanes="E4_7_NWB_0 E6_7_NEB_0" intLanes=":7_0_0 :7_1_0 :7_2_0 :7_3_0" shape="104.23,304.23 106.49,301.96 105.17,299.63 104.94,298.14 104.99,296.41 105.32,294.47 105.94,292.31 99.87,290.28 98.85,292.08 98.21,292.42 97.49,292.40 96.67,292.01 95.77,291.25 91.25,295.77 93.73,297.92 95.83,299.18 99.64,300.82 101.74,302.08">
        <request index="0" response="0000" foes="1000" cont="0"/>
        <request index="1" response="0000" foes="1000" cont="0"/>
        <request index="2" response="0000" foes="0000" cont="0"/>
        <request index="3" response="0011" foes="0011" cont="0"/>
    </junction>
    <junction id="8" type="dead_end" x="200.00" y="400.00" incLanes="E7_8_NEB_0" intLanes="" shape="202.26,397.74 200.00,400.00"/>

    <junction id=":2_4_0" type="internal" x="1.05" y="3.35" incLanes=":2_3_0 E2_3_WB_0" intLanes=":2_0_0 :2_1_0"/>
    <junction id=":3_6_0" type="internal" x="95.64" y="-0.94" incLanes=":3_3_0 E3_4_WB_0" intLanes=":3_0_0 :3_1_0 :3_5_0"/>
    <junction id=":4_6_0" type="internal" x="196.01" y="-0.97" incLanes=":4_3_0 E4_5_WB_0" intLanes=":4_0_0 :4_1_0 :4_5_0"/>
    <junction id=":6_6_0" type="internal" x="1.53" y="201.13" incLanes=":6_1_0 E2_6_NB_0" intLanes=":6_3_0 :6_4_0 :6_5_0"/>

    <connection from="E1_2_EB" to="E2_3_EB" fromLane="0" toLane="0" via=":2_2_0" dir="s" state="M"/>
    <connection from="E1_2_EB" to="E2_6_NB" fromLane="0" toLane="0" via=":2_3_0" dir="l" state="m"/>
    <connection from="E2_3_EB" to="E3_4_EB" fromLane="0" toLane="0" via=":3_2_0" dir="s" state="M"/>
    <connection from="E2_3_EB" to="E3_6_NWB" fromLane="0" toLane="0" via=":3_3_0" dir="l" state="m"/>
    <connection from="E2_3_WB" to="E2_6_NB" fromLane="0" toLane="0" via=":2_1_0" dir="r" state="M"/>
    <connection from="E2_6_NB" to="E3_6_SEB" fromLane="0" toLane="0" via=":6_4_0" dir="r" state="M"/>
    <connection from="E2_6_NB" to="E6_7_NEB" fromLane="0" toLane="0" via=":6_5_0" dir="R" state="M"/>
    <connection from="E2_6_SB" to="E2_3_EB" fromLane="0" toLane="0" via=":2_0_0" dir="l" state="m"/>
    <connection from="E3_4_EB" to="E4_5_EB" fromLane="0" toLane="0" via=":4_2_0" dir="s" state="M"/>
    <connection from="E3_4_EB" to="E4_7_NWB" fromLane="0" toLane="0" via=":4_3_0" dir="l" state="m"/>
    <connection from="E3_4_WB" to="E3_6_NWB" fromLane="0" toLane="0" via=":3_0_0" dir="r" state="M"/>
    <connection from="E3_4_WB" to="E2_3_WB" fromLane="0" toLane="0" via=":3_1_0" dir="s" state="M"/>
    <connection from="E3_6_NWB" to="E6_7_NEB" fromLane="0" toLane="0" via=":6_2_0" dir="r" state="m"/>
    <connection from="E3_6_NWB" to="E2_6_SB" fromLane="0" toLane="0" via=":6_3_0" dir="l" state="m"/>
    <connection from="E3_6_SEB" to="E2_3_WB" fromLane="0" toLane="0" via=":3_4_0" dir="r" state="m"/>
    <connection from="E3_6_SEB" to="E3_4_EB" fromLane="0" toLane="0" via=":3_5_0" dir="l" state="m"/>
    <connection from="E4_5_WB" to="E4_7_NWB" fromLane="0" toLane="0" via=":4_0_0" dir="r" state="M"/>
    <connection from="E4_5_WB" to="E3_4_WB" fromLane="0" toLane="0" via=":4_1_0" dir="s" state="M"/>
    <connection from="E4_7_NWB" to="E7_8_NEB" fromLane="0" toLane="0" via=":7_0_0" dir="r" state="M"/>
    <connection from="E4_7_NWB" to="E6_7_SWB" fromLane="0" toLane="0" via=":7_1_0" dir="l" state="M"/>
    <connection from="E4_7_SEB" to="E3_4_WB" fromLane="0" toLane="0" via=":4_4_0" dir="r" state="m"/>
    <connection from="E4_7_SEB" to="E4_5_EB" fromLane="0" toLane="0" via=":4_5_0" dir="l" state="m"/>
    <connection from="E6_7_NEB" to="E4_7_SEB" fromLane="0" toLane="0" via=":7_2_0" dir="r" state="M"/>
    <connection from="E6_7_NEB" to="E7_8_NEB" fromLane="0" toLane="0" via=":7_3_0" dir="s" state="m"/>
    <connection from="E6_7_SWB" to="E2_6_SB" fromLane="0" toLane="0" via=":6_0_0" dir="L" state="M"/>
    <connection from="E6_7_SWB" to="E3_6_SEB" fromLane="0" toLane="0" via=":6_1_0" dir="l" state="m"/>

    <connection from=":2_0" to="E2_3_EB" fromLane="0" toLane="0" dir="l" state="M"/>
    <connection from=":2_1" to="E2_6_NB" fromLane="0" toLane="0" dir="r" state="M"/>
    <connection from=":2_2" to="E2_3_EB" fromLane="0" toLane="0" dir="s" state="M"/>
    <connection from=":2_3" to="E2_6_NB" fromLane="0" toLane="0" via=":2_4_0" dir="l" state="m"/>
    <connection from=":2_4" to="E2_6_NB" fromLane="0" toLane="0" dir="l" state="M"/>
    <connection from=":3_0" to="E3_6_NWB" fromLane="0" toLane="0" dir="r" state="M"/>
    <connection from=":3_1" to="E2_3_WB" fromLane="0" toLane="0" dir="s" state="M"/>
    <connection from=":3_2" to="E3_4_EB" fromLane="0" toLane="0" dir="s" state="M"/>
    <connection from=":3_3" to="E3_6_NWB" fromLane="0" toLane="0" via=":3_6_0" dir="l" state="m"/>
    <connection from=":3_6" to="E3_6_NWB" fromLane="0" toLane="0" dir="l" state="M"/>
    <connection from=":3_4" to="E2_3_WB" fromLane="0" toLane="0" dir="r" state="M"/>
    <connection from=":3_5" to="E3_4_EB" fromLane="0" toLane="0" dir="l" state="M"/>
    <connection from=":4_0" to="E4_7_NWB" fromLane="0" toLane="0" dir="r" state="M"/>
    <connection from=":4_1" to="E3_4_WB" fromLane="0" toLane="0" dir="s" state="M"/>
    <connection from=":4_2" to="E4_5_EB" fromLane="0" toLane="0" dir="s" state="M"/>
    <connection from=":4_3" to="E4_7_NWB" fromLane="0" toLane="0" via=":4_6_0" dir="l" state="m"/>
    <connection from=":4_6" to="E4_7_NWB" fromLane="0" toLane="0" dir="l" state="M"/>
    <connection from=":4_4" to="E3_4_WB" fromLane="0" toLane="0" dir="r" state="M"/>
    <connection from=":4_5" to="E4_5_EB" fromLane="0" toLane="0" dir="l" state="M"/>
    <connection from=":6_0" to="E2_6_SB" fromLane="0" toLane="0" dir="L" state="M"/>
    <connection from=":6_1" to="E3_6_SEB" fromLane="0" toLane="0" via=":6_6_0" dir="l" state="m"/>
    <connection from=":6_6" to="E3_6_SEB" fromLane="0" toLane="0" dir="l" state="M"/>
    <connection from=":6_2" to="E6_7_NEB" fromLane="0" toLane="0" dir="r" state="M"/>
    <connection from=":6_3" to="E2_6_SB" fromLane="0" toLane="0" dir="l" state="M"/>
    <connection from=":6_4" to="E3_6_SEB" fromLane="0" toLane="0" dir="r" state="M"/>
    <connection from=":6_5" to="E6_7_NEB" fromLane="0" toLane="0" dir="R" state="M"/>
    <connection from=":7_0" to="E7_8_NEB" fromLane="0" toLane="0" dir="r" state="M"/>
    <connection from=":7_1" to="E6_7_SWB" fromLane="0" toLane="0" dir="l" state="M"/>
    <connection from=":7_2" to="E4_7_SEB" fromLane="0" toLane="0" dir="r" state="M"/>
    <connection from=":7_3" to="E7_8_NEB" fromLane="0" toLane="0" dir="s" state="M"/>

</net>
