<?xml version="1.0" encoding="UTF-8"?>

<!-- generated on 2026-04-26T09:28:56.892493+01:00 by Eclipse SUMO netedit 1.26.0
<neteditConfiguration xmlns:xsi="http://www.w3.org/2001/XMLSchema-instance" xsi:noNamespaceSchemaLocation="http://sumo.dlr.de/xsd/neteditConfiguration.xsd">

    <input>
        <sumo-net-file value="/home/miguel/6.Projects/Thesis/sumo/net/Popular/Sioux_Falls.net.xml"/>
    </input>

    <output>
        <output-file value="/home/miguel/6.Projects/Thesis/sumo/net/Popular/Sioux_Falls.net.xml"/>
    </output>

    <processing>
        <geometry.min-radius.fix.railways value="false"/>
        <geometry.avoid-overlap value="false"/>
        <geometry.max-grade.fix value="false"/>
        <offset.disable-normalization value="true"/>
        <lefthand value="0"/>
    </processing>

    <junctions>
        <no-turnarounds value="true"/>
        <junctions.corner-detail value="5"/>
        <junctions.limit-turn-speed value="5.50"/>
        <rectangular-lane-cut value="0"/>
    </junctions>

    <pedestrian>
        <walkingareas value="0"/>
    </pedestrian>

</neteditConfiguration>
-->

<net version="1.20" junctionCornerDetail="5" limitTurnSpeed="5.50" avoidOverlap="0" xmlns:xsi="http://www.w3.org/2001/XMLSchema-instance" xsi:noNamespaceSchemaLocation="http://sumo.dlr.de/xsd/net_file.xsd">

    <location netOffset="0.00,0.00" convBoundary="0.00,-700.00,400.00,0.00" origBoundary="-10000000000.00,-10000000000.00,10000000000.00,10000000000.00" projParameter="!"/>

    <edge id=":1_0" function="internal">
        <lane id=":1_0_0" index="0" speed="6.08" length="7.74" shape="3.20,1.60 1.10,1.30 -0.40,0.40 -1.30,-1.10 -1.60,-3.20"/>
    </edge>
    <edge id=":1_1" function="internal">
        <lane id=":1_1_0" index="0" speed="3.90" length="2.58" shape="1.60,-3.20 1.70,-2.50 2.00,-2.00 2.50,-1.70 3.20,-1.60"/>
    </edge>
    <edge id=":10_0" function="internal">
        <lane id=":10_0_0" index="0" speed="6.51" length="9.03" shape="198.40,-292.80 198.05,-295.25 197.00,-297.00 195.25,-298.05 192.80,-298.40"/>
    </edge>
    <edge id=":10_1" function="internal">
        <lane id=":10_1_0" index="0" speed="13.89" length="18.93" shape="198.40,-292.80 198.40,-311.73"/>
    </edge>
    <edge id=":10_2" function="internal">
        <lane id=":10_2_0" index="0" speed="13.89" length="4.39" shape="198.40,-292.80 198.95,-296.79 199.08,-297.12"/>
    </edge>
    <edge id=":10_3" function="internal">
        <lane id=":10_3_0" index="0" speed="8.71" length="2.01" shape="198.40,-292.80 199.17,-294.66"/>
    </edge>
    <edge id=":10_20" function="internal">
        <lane id=":10_20_0" index="0" speed="13.89" length="14.85" shape="199.08,-297.12 200.59,-300.89 203.33,-305.10 207.16,-309.42"/>
    </edge>
    <edge id=":10_21" function="internal">
        <lane id=":10_21_0" index="0" speed="8.71" length="15.01" shape="199.17,-294.66 199.73,-296.03 203.07,-298.85 207.40,-300.84 211.73,-301.60"/>
    </edge>
    <edge id=":10_4" function="internal">
        <lane id=":10_4_0" index="0" speed="7.65" length="12.89" shape="211.73,-298.40 207.30,-298.05 204.13,-297.00 202.23,-295.25 201.60,-292.80"/>
    </edge>
    <edge id=":10_5" function="internal">
        <lane id=":10_5_0" index="0" speed="13.89" length="18.93" shape="211.73,-298.40 192.80,-298.40"/>
    </edge>
    <edge id=":10_6" function="internal">
        <lane id=":10_6_0" index="0" speed="9.73" length="21.49" shape="211.73,-298.40 205.90,-299.23 201.73,-301.73 199.23,-305.90 198.40,-311.73"/>
    </edge>
    <edge id=":10_7" function="internal">
        <lane id=":10_7_0" index="0" speed="7.42" length="19.31" shape="211.73,-298.40 205.59,-299.09 202.79,-301.16 203.31,-304.60 207.16,-309.42"/>
    </edge>
    <edge id=":10_8" function="internal">
        <lane id=":10_8_0" index="0" speed="5.47" length="9.74" shape="209.42,-307.16 207.48,-304.73 207.22,-302.99 208.63,-301.95 211.73,-301.60"/>
    </edge>
    <edge id=":10_9" function="internal">
        <lane id=":10_9_0" index="0" speed="13.42" length="16.74" shape="209.42,-307.16 206.00,-303.33 203.56,-299.66 202.09,-296.15 201.60,-292.80"/>
    </edge>
    <edge id=":10_10" function="internal">
        <lane id=":10_10_0" index="0" speed="13.89" length="19.24" shape="209.42,-307.16 205.10,-303.33 200.89,-300.59 196.79,-298.95 192.80,-298.40"/>
    </edge>
    <edge id=":10_11" function="internal">
        <lane id=":10_11_0" index="0" speed="7.42" length="19.31" shape="209.42,-307.16 204.60,-303.31 201.16,-302.79 199.09,-305.59 198.40,-311.73"/>
    </edge>
    <edge id=":10_12" function="internal">
        <lane id=":10_12_0" index="0" speed="5.47" length="9.74" shape="201.60,-311.73 201.95,-308.63 202.99,-307.22 204.73,-307.48 207.16,-309.42"/>
    </edge>
    <edge id=":10_13" function="internal">
        <lane id=":10_13_0" index="0" speed="8.54" length="16.33" shape="201.60,-311.73 202.23,-307.30 204.13,-304.13 207.30,-302.23 211.73,-301.60"/>
    </edge>
    <edge id=":10_14" function="internal">
        <lane id=":10_14_0" index="0" speed="13.89" length="18.93" shape="201.60,-311.73 201.60,-292.80"/>
    </edge>
    <edge id=":10_15" function="internal">
        <lane id=":10_15_0" index="0" speed="8.71" length="6.18" shape="201.60,-311.73 200.84,-307.40 200.10,-305.78"/>
    </edge>
    <edge id=":10_22" function="internal">
        <lane id=":10_22_0" index="0" speed="8.71" length="10.84" shape="200.10,-305.78 198.85,-303.07 196.03,-299.73 192.80,-298.40"/>
    </edge>
    <edge id=":10_16" function="internal">
        <lane id=":10_16_0" index="0" speed="7.65" length="12.89" shape="192.80,-301.60 195.25,-302.23 197.00,-304.13 198.05,-307.30 198.40,-311.73"/>
    </edge>
    <edge id=":10_17" function="internal">
        <lane id=":10_17_0" index="0" speed="13.42" length="16.74" shape="192.80,-301.60 196.15,-302.09 199.66,-303.56 203.33,-306.00 207.16,-309.42"/>
    </edge>
    <edge id=":10_18" function="internal">
        <lane id=":10_18_0" index="0" speed="13.89" length="18.93" shape="192.80,-301.60 211.73,-301.60"/>
    </edge>
    <edge id=":10_19" function="internal">
        <lane id=":10_19_0" index="0" speed="8.00" length="14.19" shape="192.80,-301.60 196.65,-301.05 199.40,-299.40 201.05,-296.65 201.60,-292.80"/>
    </edge>
    <edge id=":11_0" function="internal">
        <lane id=":11_0_0" index="0" speed="6.51" length="9.03" shape="98.40,-292.80 98.05,-295.25 97.00,-297.00 95.25,-298.05 92.80,-298.40"/>
    </edge>
    <edge id=":11_1" function="internal">
        <lane id=":11_1_0" index="0" speed="13.89" length="14.40" shape="98.40,-292.80 98.40,-307.20"/>
    </edge>
    <edge id=":11_2" function="internal">
        <lane id=":11_2_0" index="0" speed="8.00" length="4.07" shape="98.40,-292.80 98.95,-296.65 99.04,-296.80"/>
    </edge>
    <edge id=":11_12" function="internal">
        <lane id=":11_12_0" index="0" speed="8.00" length="10.13" shape="99.04,-296.80 100.60,-299.40 103.35,-301.05 107.20,-301.60"/>
    </edge>
    <edge id=":11_3" function="internal">
        <lane id=":11_3_0" index="0" speed="6.51" length="9.03" shape="107.20,-298.40 104.75,-298.05 103.00,-297.00 101.95,-295.25 101.60,-292.80"/>
    </edge>
    <edge id=":11_4" function="internal">
        <lane id=":11_4_0" index="0" speed="13.89" length="14.40" shape="107.20,-298.40 92.80,-298.40"/>
    </edge>
    <edge id=":11_5" function="internal">
        <lane id=":11_5_0" index="0" speed="8.00" length="14.19" shape="107.20,-298.40 103.35,-298.95 100.60,-300.60 98.95,-303.35 98.40,-307.20"/>
    </edge>
    <edge id=":11_6" function="internal">
        <lane id=":11_6_0" index="0" speed="6.51" length="9.03" shape="101.60,-307.20 101.95,-304.75 103.00,-303.00 104.75,-301.95 107.20,-301.60"/>
    </edge>
    <edge id=":11_7" function="internal">
        <lane id=":11_7_0" index="0" speed="13.89" length="14.40" shape="101.60,-307.20 101.60,-292.80"/>
    </edge>
    <edge id=":11_8" function="internal">
        <lane id=":11_8_0" index="0" speed="8.00" length="4.07" shape="101.60,-307.20 101.05,-303.35 100.96,-303.20"/>
    </edge>
    <edge id=":11_13" function="internal">
        <lane id=":11_13_0" index="0" speed="8.00" length="10.13" shape="100.96,-303.20 99.40,-300.60 96.65,-298.95 92.80,-298.40"/>
    </edge>
    <edge id=":11_9" function="internal">
        <lane id=":11_9_0" index="0" speed="6.51" length="9.03" shape="92.80,-301.60 95.25,-301.95 97.00,-303.00 98.05,-304.75 98.40,-307.20"/>
    </edge>
    <edge id=":11_10" function="internal">
        <lane id=":11_10_0" index="0" speed="13.89" length="14.40" shape="92.80,-301.60 107.20,-301.60"/>
    </edge>
    <edge id=":11_11" function="internal">
        <lane id=":11_11_0" index="0" speed="8.00" length="14.19" shape="92.80,-301.60 96.65,-301.05 99.40,-299.40 101.05,-296.65 101.60,-292.80"/>
    </edge>
    <edge id=":12_0" function="internal">
        <lane id=":12_0_0" index="0" speed="13.89" length="14.40" shape="-1.60,-292.80 -1.60,-307.20"/>
    </edge>
    <edge id=":12_1" function="internal">
        <lane id=":12_1_0" index="0" speed="8.00" length="4.07" shape="-1.60,-292.80 -1.05,-296.65 -0.96,-296.80"/>
    </edge>
    <edge id=":12_6" function="internal">
        <lane id=":12_6_0" index="0" speed="8.00" length="10.13" shape="-0.96,-296.80 0.60,-299.40 3.35,-301.05 7.20,-301.60"/>
    </edge>
    <edge id=":12_2" function="internal">
        <lane id=":12_2_0" index="0" speed="6.51" length="9.03" shape="7.20,-298.40 4.75,-298.05 3.00,-297.00 1.95,-295.25 1.60,-292.80"/>
    </edge>
    <edge id=":12_3" function="internal">
        <lane id=":12_3_0" index="0" speed="8.00" length="14.19" shape="7.20,-298.40 3.35,-298.95 0.60,-300.60 -1.05,-303.35 -1.60,-307.20"/>
    </edge>
    <edge id=":12_4" function="internal">
        <lane id=":12_4_0" index="0" speed="6.51" length="9.03" shape="1.60,-307.20 1.95,-304.75 3.00,-303.00 4.75,-301.95 7.20,-301.60"/>
    </edge>
    <edge id=":12_5" function="internal">
        <lane id=":12_5_0" index="0" speed="13.89" length="14.40" shape="1.60,-307.20 1.60,-292.80"/>
    </edge>
    <edge id=":13_0" function="internal">
        <lane id=":13_0_0" index="0" speed="6.08" length="7.74" shape="-1.60,-696.80 -1.30,-698.90 -0.40,-700.40 1.10,-701.30 3.20,-701.60"/>
    </edge>
    <edge id=":13_1" function="internal">
        <lane id=":13_1_0" index="0" speed="3.90" length="2.58" shape="3.20,-698.40 2.50,-698.30 2.00,-698.00 1.70,-697.50 1.60,-696.80"/>
    </edge>
    <edge id=":14_0" function="internal">
        <lane id=":14_0_0" index="0" speed="13.89" length="14.40" shape="98.40,-492.80 98.40,-507.20"/>
    </edge>
    <edge id=":14_1" function="internal">
        <lane id=":14_1_0" index="0" speed="8.00" length="4.07" shape="98.40,-492.80 98.95,-496.65 99.04,-496.80"/>
    </edge>
    <edge id=":14_6" function="internal">
        <lane id=":14_6_0" index="0" speed="8.00" length="10.13" shape="99.04,-496.80 100.60,-499.40 103.35,-501.05 107.20,-501.60"/>
    </edge>
    <edge id=":14_2" function="internal">
        <lane id=":14_2_0" index="0" speed="6.51" length="9.03" shape="107.20,-498.40 104.75,-498.05 103.00,-497.00 101.95,-495.25 101.60,-492.80"/>
    </edge>
    <edge id=":14_3" function="internal">
        <lane id=":14_3_0" index="0" speed="8.00" length="14.19" shape="107.20,-498.40 103.35,-498.95 100.60,-500.60 98.95,-503.35 98.40,-507.20"/>
    </edge>
    <edge id=":14_4" function="internal">
        <lane id=":14_4_0" index="0" speed="6.51" length="9.03" shape="101.60,-507.20 101.95,-504.75 103.00,-503.00 104.75,-501.95 107.20,-501.60"/>
    </edge>
    <edge id=":14_5" function="internal">
        <lane id=":14_5_0" index="0" speed="13.89" length="14.40" shape="101.60,-507.20 101.60,-492.80"/>
    </edge>
    <edge id=":15_0" function="internal">
        <lane id=":15_0_0" index="0" speed="6.51" length="9.03" shape="198.40,-492.80 198.05,-495.25 197.00,-497.00 195.25,-498.05 192.80,-498.40"/>
    </edge>
    <edge id=":15_1" function="internal">
        <lane id=":15_1_0" index="0" speed="13.89" length="14.40" shape="198.40,-492.80 198.40,-507.20"/>
    </edge>
    <edge id=":15_2" function="internal">
        <lane id=":15_2_0" index="0" speed="8.00" length="4.07" shape="198.40,-492.80 198.95,-496.65 199.04,-496.80"/>
    </edge>
    <edge id=":15_12" function="internal">
        <lane id=":15_12_0" index="0" speed="8.00" length="10.13" shape="199.04,-496.80 200.60,-499.40 203.35,-501.05 207.20,-501.60"/>
    </edge>
    <edge id=":15_3" function="internal">
        <lane id=":15_3_0" index="0" speed="6.51" length="9.03" shape="207.20,-498.40 204.75,-498.05 203.00,-497.00 201.95,-495.25 201.60,-492.80"/>
    </edge>
    <edge id=":15_4" function="internal">
        <lane id=":15_4_0" index="0" speed="13.89" length="14.40" shape="207.20,-498.40 192.80,-498.40"/>
    </edge>
    <edge id=":15_5" function="internal">
        <lane id=":15_5_0" index="0" speed="8.00" length="14.19" shape="207.20,-498.40 203.35,-498.95 200.60,-500.60 198.95,-503.35 198.40,-507.20"/>
    </edge>
    <edge id=":15_6" function="internal">
        <lane id=":15_6_0" index="0" speed="6.51" length="9.03" shape="201.60,-507.20 201.95,-504.75 203.00,-503.00 204.75,-501.95 207.20,-501.60"/>
    </edge>
    <edge id=":15_7" function="internal">
        <lane id=":15_7_0" index="0" speed="13.89" length="14.40" shape="201.60,-507.20 201.60,-492.80"/>
    </edge>
    <edge id=":15_8" function="internal">
        <lane id=":15_8_0" index="0" speed="8.00" length="4.07" shape="201.60,-507.20 201.05,-503.35 200.96,-503.20"/>
    </edge>
    <edge id=":15_13" function="internal">
        <lane id=":15_13_0" index="0" speed="8.00" length="10.13" shape="200.96,-503.20 199.40,-500.60 196.65,-498.95 192.80,-498.40"/>
    </edge>
    <edge id=":15_9" function="internal">
        <lane id=":15_9_0" index="0" speed="6.51" length="9.03" shape="192.80,-501.60 195.25,-501.95 197.00,-503.00 198.05,-504.75 198.40,-507.20"/>
    </edge>
    <edge id=":15_10" function="internal">
        <lane id=":15_10_0" index="0" speed="13.89" length="14.40" shape="192.80,-501.60 207.20,-501.60"/>
    </edge>
    <edge id=":15_11" function="internal">
        <lane id=":15_11_0" index="0" speed="8.00" length="14.19" shape="192.80,-501.60 196.65,-501.05 199.40,-499.40 201.05,-496.65 201.60,-492.80"/>
    </edge>
    <edge id=":16_0" function="internal">
        <lane id=":16_0_0" index="0" speed="6.51" length="9.03" shape="298.40,-292.80 298.05,-295.25 297.00,-297.00 295.25,-298.05 292.80,-298.40"/>
    </edge>
    <edge id=":16_1" function="internal">
        <lane id=":16_1_0" index="0" speed="13.89" length="14.40" shape="298.40,-292.80 298.40,-307.20"/>
    </edge>
    <edge id=":16_2" function="internal">
        <lane id=":16_2_0" index="0" speed="8.00" length="4.07" shape="298.40,-292.80 298.95,-296.65 299.04,-296.80"/>
    </edge>
    <edge id=":16_12" function="internal">
        <lane id=":16_12_0" index="0" speed="8.00" length="10.13" shape="299.04,-296.80 300.60,-299.40 303.35,-301.05 307.20,-301.60"/>
    </edge>
    <edge id=":16_3" function="internal">
        <lane id=":16_3_0" index="0" speed="6.51" length="9.03" shape="307.20,-298.40 304.75,-298.05 303.00,-297.00 301.95,-295.25 301.60,-292.80"/>
    </edge>
    <edge id=":16_4" function="internal">
        <lane id=":16_4_0" index="0" speed="13.89" length="14.40" shape="307.20,-298.40 292.80,-298.40"/>
    </edge>
    <edge id=":16_5" function="internal">
        <lane id=":16_5_0" index="0" speed="8.00" length="14.19" shape="307.20,-298.40 303.35,-298.95 300.60,-300.60 298.95,-303.35 298.40,-307.20"/>
    </edge>
    <edge id=":16_6" function="internal">
        <lane id=":16_6_0" index="0" speed="6.51" length="9.03" shape="301.60,-307.20 301.95,-304.75 303.00,-303.00 304.75,-301.95 307.20,-301.60"/>
    </edge>
    <edge id=":16_7" function="internal">
        <lane id=":16_7_0" index="0" speed="13.89" length="14.40" shape="301.60,-307.20 301.60,-292.80"/>
    </edge>
    <edge id=":16_8" function="internal">
        <lane id=":16_8_0" index="0" speed="8.00" length="4.07" shape="301.60,-307.20 301.05,-303.35 300.96,-303.20"/>
    </edge>
    <edge id=":16_13" function="internal">
        <lane id=":16_13_0" index="0" speed="8.00" length="10.13" shape="300.96,-303.20 299.40,-300.60 296.65,-298.95 292.80,-298.40"/>
    </edge>
    <edge id=":16_9" function="internal">
        <lane id=":16_9_0" index="0" speed="6.51" length="9.03" shape="292.80,-301.60 295.25,-301.95 297.00,-303.00 298.05,-304.75 298.40,-307.20"/>
    </edge>
    <edge id=":16_10" function="internal">
        <lane id=":16_10_0" index="0" speed="13.89" length="14.40" shape="292.80,-301.60 307.20,-301.60"/>
    </edge>
    <edge id=":16_11" function="internal">
        <lane id=":16_11_0" index="0" speed="8.00" length="14.19" shape="292.80,-301.60 296.65,-301.05 299.40,-299.40 301.05,-296.65 301.60,-292.80"/>
    </edge>
    <edge id=":17_0" function="internal">
        <lane id=":17_0_0" index="0" speed="5.47" length="9.74" shape="298.40,-388.27 298.05,-391.37 297.01,-392.78 295.27,-392.52 292.84,-390.58"/>
    </edge>
    <edge id=":17_1" function="internal">
        <lane id=":17_1_0" index="0" speed="13.89" length="17.05" shape="298.40,-388.27 298.40,-405.33"/>
    </edge>
    <edge id=":17_2" function="internal">
        <lane id=":17_2_0" index="0" speed="13.89" length="17.05" shape="301.60,-405.33 301.60,-388.27"/>
    </edge>
    <edge id=":17_3" function="internal">
        <lane id=":17_3_0" index="0" speed="13.73" length="3.53" shape="301.60,-405.33 301.05,-402.16 300.92,-401.87"/>
    </edge>
    <edge id=":17_6" function="internal">
        <lane id=":17_6_0" index="0" speed="13.73" length="13.98" shape="300.92,-401.87 299.41,-398.64 296.67,-394.78 292.84,-390.58"/>
    </edge>
    <edge id=":17_4" function="internal">
        <lane id=":17_4_0" index="0" speed="12.73" length="15.02" shape="290.58,-392.84 294.00,-396.55 296.44,-399.87 297.91,-402.80 298.40,-405.33"/>
    </edge>
    <edge id=":17_5" function="internal">
        <lane id=":17_5_0" index="0" speed="7.42" length="19.31" shape="290.58,-392.84 295.40,-396.69 298.84,-397.21 300.91,-394.41 301.60,-388.27"/>
    </edge>
    <edge id=":18_0" function="internal">
        <lane id=":18_0_0" index="0" speed="6.74" length="9.77" shape="398.40,-292.80 397.99,-295.25 396.78,-297.00 394.74,-298.05 391.90,-298.40"/>
    </edge>
    <edge id=":18_1" function="internal">
        <lane id=":18_1_0" index="0" speed="13.89" length="14.83" shape="398.40,-292.80 398.27,-296.52 397.90,-300.19 397.29,-303.83 396.48,-307.47"/>
    </edge>
    <edge id=":18_2" function="internal">
        <lane id=":18_2_0" index="0" speed="13.89" length="15.61" shape="399.59,-308.24 400.41,-304.49 401.05,-300.58 401.46,-296.64 401.60,-292.80"/>
    </edge>
    <edge id=":18_3" function="internal">
        <lane id=":18_3_0" index="0" speed="7.63" length="4.59" shape="399.59,-308.24 400.03,-303.94 399.94,-303.69"/>
    </edge>
    <edge id=":18_6" function="internal">
        <lane id=":18_6_0" index="0" speed="7.63" length="10.63" shape="399.94,-303.69 398.90,-300.86 396.19,-299.02 391.90,-298.40"/>
    </edge>
    <edge id=":18_4" function="internal">
        <lane id=":18_4_0" index="0" speed="6.04" length="9.07" shape="391.90,-301.60 394.46,-301.97 396.07,-303.07 396.75,-304.90 396.48,-307.47"/>
    </edge>
    <edge id=":18_5" function="internal">
        <lane id=":18_5_0" index="0" speed="8.19" length="14.92" shape="391.90,-301.60 396.14,-301.05 399.18,-299.40 400.99,-296.65 401.60,-292.80"/>
    </edge>
    <edge id=":19_0" function="internal">
        <lane id=":19_0_0" index="0" speed="6.51" length="9.03" shape="298.40,-492.80 298.05,-495.25 297.00,-497.00 295.25,-498.05 292.80,-498.40"/>
    </edge>
    <edge id=":19_1" function="internal">
        <lane id=":19_1_0" index="0" speed="13.89" length="14.40" shape="298.40,-492.80 298.40,-507.20"/>
    </edge>
    <edge id=":19_2" function="internal">
        <lane id=":19_2_0" index="0" speed="13.89" length="14.40" shape="301.60,-507.20 301.60,-492.80"/>
    </edge>
    <edge id=":19_3" function="internal">
        <lane id=":19_3_0" index="0" speed="8.00" length="4.07" shape="301.60,-507.20 301.05,-503.35 300.96,-503.20"/>
    </edge>
    <edge id=":19_6" function="internal">
        <lane id=":19_6_0" index="0" speed="8.00" length="10.13" shape="300.96,-503.20 299.40,-500.60 296.65,-498.95 292.80,-498.40"/>
    </edge>
    <edge id=":19_4" function="internal">
        <lane id=":19_4_0" index="0" speed="6.51" length="9.03" shape="292.80,-501.60 295.25,-501.95 297.00,-503.00 298.05,-504.75 298.40,-507.20"/>
    </edge>
    <edge id=":19_5" function="internal">
        <lane id=":19_5_0" index="0" speed="8.00" length="14.19" shape="292.80,-501.60 296.65,-501.05 299.40,-499.40 301.05,-496.65 301.60,-492.80"/>
    </edge>
    <edge id=":2_0" function="internal">
        <lane id=":2_0_0" index="0" speed="6.08" length="7.74" shape="301.60,-3.20 301.30,-1.10 300.40,0.40 298.90,1.30 296.80,1.60"/>
    </edge>
    <edge id=":2_1" function="internal">
        <lane id=":2_1_0" index="0" speed="3.90" length="2.58" shape="296.80,-1.60 297.50,-1.70 298.00,-2.00 298.30,-2.50 298.40,-3.20"/>
    </edge>
    <edge id=":20_0" function="internal">
        <lane id=":20_0_0" index="0" speed="8.28" length="24.46" shape="298.40,-670.01 298.05,-681.09 297.01,-688.21 295.27,-691.38 292.84,-690.58"/>
    </edge>
    <edge id=":20_1" function="internal">
        <lane id=":20_1_0" index="0" speed="11.87" length="32.48" shape="298.40,-670.01 297.77,-682.43 295.87,-691.30 292.70,-696.63 288.27,-698.40"/>
    </edge>
    <edge id=":20_2" function="internal">
        <lane id=":20_2_0" index="0" speed="5.91" length="14.65" shape="298.40,-670.01 299.83,-673.47 303.08,-674.96 306.60,-674.30 308.83,-671.29"/>
    </edge>
    <edge id=":20_3" function="internal">
        <lane id=":20_3_0" index="0" speed="6.40" length="17.52" shape="305.72,-670.51 303.92,-676.67 302.63,-678.63 301.86,-676.41 301.60,-670.01"/>
    </edge>
    <edge id=":20_4" function="internal">
        <lane id=":20_4_0" index="0" speed="9.22" length="27.10" shape="305.72,-670.51 302.45,-681.65 299.21,-688.71 296.01,-691.68 292.84,-690.58"/>
    </edge>
    <edge id=":20_5" function="internal">
        <lane id=":20_5_0" index="0" speed="13.55" length="34.66" shape="305.72,-670.51 302.02,-682.71 297.87,-691.43 293.29,-696.66 288.27,-698.40"/>
    </edge>
    <edge id=":20_6" function="internal">
        <lane id=":20_6_0" index="0" speed="13.89" length="38.83" shape="288.27,-701.60 294.42,-699.71 299.90,-694.02 304.70,-684.55 308.83,-671.29"/>
    </edge>
    <edge id=":20_7" function="internal">
        <lane id=":20_7_0" index="0" speed="12.71" length="6.83" shape="288.27,-701.60 294.10,-699.63 294.49,-699.07"/>
    </edge>
    <edge id=":20_8" function="internal">
        <lane id=":20_8_0" index="0" speed="7.42" length="10.97" shape="288.27,-701.60 294.41,-700.91 297.21,-698.84 297.01,-697.54"/>
    </edge>
    <edge id=":20_12" function="internal">
        <lane id=":20_12_0" index="0" speed="12.71" length="30.59" shape="294.49,-699.07 298.27,-693.70 300.77,-683.83 301.60,-670.01"/>
    </edge>
    <edge id=":20_13" function="internal">
        <lane id=":20_13_0" index="0" speed="7.42" length="8.33" shape="297.01,-697.54 296.69,-695.40 292.84,-690.58"/>
    </edge>
    <edge id=":20_9" function="internal">
        <lane id=":20_9_0" index="0" speed="5.47" length="9.74" shape="290.58,-692.84 292.52,-695.27 292.78,-697.01 291.37,-698.05 288.27,-698.40"/>
    </edge>
    <edge id=":20_10" function="internal">
        <lane id=":20_10_0" index="0" speed="10.27" length="34.02" shape="290.58,-692.84 296.51,-695.23 301.49,-690.99 305.58,-682.28 308.83,-671.29"/>
    </edge>
    <edge id=":20_11" function="internal">
        <lane id=":20_11_0" index="0" speed="9.45" length="32.35" shape="290.58,-692.84 296.17,-695.13 299.53,-690.15 301.17,-680.81 301.60,-670.01"/>
    </edge>
    <edge id=":21_0" function="internal">
        <lane id=":21_0_0" index="0" speed="6.51" length="9.03" shape="198.40,-692.80 198.05,-695.25 197.00,-697.00 195.25,-698.05 192.80,-698.40"/>
    </edge>
    <edge id=":21_1" function="internal">
        <lane id=":21_1_0" index="0" speed="8.00" length="14.19" shape="198.40,-692.80 198.95,-696.65 200.60,-699.40 203.35,-701.05 207.20,-701.60"/>
    </edge>
    <edge id=":21_2" function="internal">
        <lane id=":21_2_0" index="0" speed="6.51" length="9.03" shape="207.20,-698.40 204.75,-698.05 203.00,-697.00 201.95,-695.25 201.60,-692.80"/>
    </edge>
    <edge id=":21_3" function="internal">
        <lane id=":21_3_0" index="0" speed="13.89" length="14.40" shape="207.20,-698.40 192.80,-698.40"/>
    </edge>
    <edge id=":21_4" function="internal">
        <lane id=":21_4_0" index="0" speed="13.89" length="14.40" shape="192.80,-701.60 207.20,-701.60"/>
    </edge>
    <edge id=":21_5" function="internal">
        <lane id=":21_5_0" index="0" speed="8.00" length="4.07" shape="192.80,-701.60 196.65,-701.05 196.80,-700.96"/>
    </edge>
    <edge id=":21_6" function="internal">
        <lane id=":21_6_0" index="0" speed="8.00" length="10.13" shape="196.80,-700.96 199.40,-699.40 201.05,-696.65 201.60,-692.80"/>
    </edge>
    <edge id=":22_0" function="internal">
        <lane id=":22_0_0" index="0" speed="6.51" length="9.03" shape="198.40,-592.80 198.05,-595.25 197.00,-597.00 195.25,-598.05 192.80,-598.40"/>
    </edge>
    <edge id=":22_1" function="internal">
        <lane id=":22_1_0" index="0" speed="13.89" length="18.93" shape="198.40,-592.80 198.40,-611.73"/>
    </edge>
    <edge id=":22_2" function="internal">
        <lane id=":22_2_0" index="0" speed="13.89" length="4.39" shape="198.40,-592.80 199.15,-596.44 199.42,-597.05"/>
    </edge>
    <edge id=":22_12" function="internal">
        <lane id=":22_12_0" index="0" speed="13.89" length="14.68" shape="199.42,-597.05 201.14,-600.94 203.94,-605.53 207.16,-609.42"/>
    </edge>
    <edge id=":22_3" function="internal">
        <lane id=":22_3_0" index="0" speed="13.42" length="16.74" shape="209.42,-607.16 206.00,-603.33 203.56,-599.66 202.09,-596.15 201.60,-592.80"/>
    </edge>
    <edge id=":22_4" function="internal">
        <lane id=":22_4_0" index="0" speed="13.89" length="19.24" shape="209.42,-607.16 205.10,-603.33 200.89,-600.59 196.79,-598.95 192.80,-598.40"/>
    </edge>
    <edge id=":22_5" function="internal">
        <lane id=":22_5_0" index="0" speed="7.42" length="19.31" shape="209.42,-607.16 204.60,-603.31 201.16,-602.79 199.09,-605.59 198.40,-611.73"/>
    </edge>
    <edge id=":22_6" function="internal">
        <lane id=":22_6_0" index="0" speed="5.47" length="9.74" shape="201.60,-611.73 201.95,-608.63 202.99,-607.22 204.73,-607.48 207.16,-609.42"/>
    </edge>
    <edge id=":22_7" function="internal">
        <lane id=":22_7_0" index="0" speed="13.89" length="18.93" shape="201.60,-611.73 201.60,-592.80"/>
    </edge>
    <edge id=":22_8" function="internal">
        <lane id=":22_8_0" index="0" speed="8.71" length="6.18" shape="201.60,-611.73 200.84,-607.40 200.10,-605.78"/>
    </edge>
    <edge id=":22_13" function="internal">
        <lane id=":22_13_0" index="0" speed="8.71" length="10.84" shape="200.10,-605.78 198.85,-603.07 196.03,-599.73 192.80,-598.40"/>
    </edge>
    <edge id=":22_9" function="internal">
        <lane id=":22_9_0" index="0" speed="7.65" length="12.89" shape="192.80,-601.60 195.25,-602.23 197.00,-604.13 198.05,-607.30 198.40,-611.73"/>
    </edge>
    <edge id=":22_10" function="internal">
        <lane id=":22_10_0" index="0" speed="13.40" length="16.68" shape="192.80,-601.60 196.66,-602.33 200.53,-604.19 204.13,-606.71 207.16,-609.42"/>
    </edge>
    <edge id=":22_11" function="internal">
        <lane id=":22_11_0" index="0" speed="8.00" length="14.19" shape="192.80,-601.60 196.65,-601.05 199.40,-599.40 201.05,-596.65 201.60,-592.80"/>
    </edge>
    <edge id=":23_0" function="internal">
        <lane id=":23_0_0" index="0" speed="13.89" length="14.40" shape="98.40,-592.80 98.40,-607.20"/>
    </edge>
    <edge id=":23_1" function="internal">
        <lane id=":23_1_0" index="0" speed="8.00" length="4.07" shape="98.40,-592.80 98.95,-596.65 99.04,-596.80"/>
    </edge>
    <edge id=":23_6" function="internal">
        <lane id=":23_6_0" index="0" speed="8.00" length="10.13" shape="99.04,-596.80 100.60,-599.40 103.35,-601.05 107.20,-601.60"/>
    </edge>
    <edge id=":23_2" function="internal">
        <lane id=":23_2_0" index="0" speed="6.51" length="9.03" shape="107.20,-598.40 104.75,-598.05 103.00,-597.00 101.95,-595.25 101.60,-592.80"/>
    </edge>
    <edge id=":23_3" function="internal">
        <lane id=":23_3_0" index="0" speed="8.00" length="14.19" shape="107.20,-598.40 103.35,-598.95 100.60,-600.60 98.95,-603.35 98.40,-607.20"/>
    </edge>
    <edge id=":23_4" function="internal">
        <lane id=":23_4_0" index="0" speed="6.51" length="9.03" shape="101.60,-607.20 101.95,-604.75 103.00,-603.00 104.75,-601.95 107.20,-601.60"/>
    </edge>
    <edge id=":23_5" function="internal">
        <lane id=":23_5_0" index="0" speed="13.89" length="14.40" shape="101.60,-607.20 101.60,-592.80"/>
    </edge>
    <edge id=":24_0" function="internal">
        <lane id=":24_0_0" index="0" speed="6.51" length="9.03" shape="98.40,-692.80 98.05,-695.25 97.00,-697.00 95.25,-698.05 92.80,-698.40"/>
    </edge>
    <edge id=":24_1" function="internal">
        <lane id=":24_1_0" index="0" speed="8.00" length="14.19" shape="98.40,-692.80 98.95,-696.65 100.60,-699.40 103.35,-701.05 107.20,-701.60"/>
    </edge>
    <edge id=":24_2" function="internal">
        <lane id=":24_2_0" index="0" speed="6.51" length="9.03" shape="107.20,-698.40 104.75,-698.05 103.00,-697.00 101.95,-695.25 101.60,-692.80"/>
    </edge>
    <edge id=":24_3" function="internal">