<?xml version='1.0' encoding='UTF-8'?>
<!-- generated on 2026-05-19 12:24:40.672601 by Eclipse SUMO randomTrips.py v1.26.0
<configuration>
    <net-file value="/home/miguel/6.Projects/BayesianFinalProject/sumo/networks/1st.net.xml"/>
    <output-trip-file value="/home/miguel/6.Projects/BayesianFinalProject/sumo/routes/routes.rou.xml"/>
    <seed value="43301"/>
    <end value="1200.0"/>
    <period value="2.4"/>
</configuration>
-->
<routes xmlns:xsi="http://www.w3.org/2001/XMLSchema-instance" xsi:noNamespaceSchemaLocation="http://sumo.dlr.de/xsd/routes_file.xsd">
    <trip id="0" depart="0.00" from="E3_6_NWB" to="E5_6_NEB"/>
    <trip id="1" depart="2.40" from="E1_2_EB" to="E5_6_NEB"/>
    <trip id="2" depart="4.80" from="E1_2_EB" to="E3_4_EB"/>
    <trip id="3" depart="7.20" from="E3_6_NWB" to="E5_6_NEB"/>
    <trip id="4" depart="9.60" from="E5_6_SWB" to="E3_5_NWB"/>
    <trip id="5" depart="12.00" from="E3_5_NWB" to="E5_6_SWB"/>
    <trip id="6" depart="14.40" from="E2_3_WB" to="E3_6_SEB"/>
    <trip id="7" depart="16.80" from="E2_5_SB" to="E3_5_SEB"/>
    <trip id="8" depart="19.20" from="E5_6_SWB" to="E3_4_EB"/>
    <trip id="9" depart="21.60" from="E2_5_SB" to="E3_6_SEB"/>
    <trip id="10" depart="24.00" from="E3_6_NWB" to="E3_6_NWB"/>
    <trip id="11" depart="26.40" from="E3_6_NWB" to="E3_6_NWB"/>
    <trip id="12" depart="28.80" from="E1_2_EB" to="E5_6_NEB"/>
    <trip id="13" depart="31.20" from="E2_3_WB" to="E3_6_SEB"/>
    <trip id="14" depart="33.60" from="E5_6_SWB" to="E3_5_NWB"/>
    <trip id="15" depart="36.00" from="E3_6_SEB" to="E3_6_SEB"/>
    <trip id="16" depart="38.40" from="E3_5_SEB" to="E3_6_SEB"/>
    <trip id="17" depart="40.80" from="E3_5_SEB" to="E2_5_SB"/>
    <trip id="18" depart="43.20" from="E3_4_WB" to="E3_5_NWB"/>
    <trip id="19" depart="45.60" from="E1_2_EB" to="E2_3_WB"/>
    <trip id="20" depart="48.00" from="E1_2_EB" to="E3_6_NWB"/>
    <trip id="21" depart="50.40" from="E2_3_EB" to="E6_7_EB"/>
    <trip id="22" depart="52.80" from="E5_6_SWB" to="E3_6_SEB"/>
    <trip id="23" depart="55.20" from="E2_5_SB" to="E3_6_SEB"/>
    <trip id="24" depart="57.60" from="E3_4_WB" to="E3_6_NWB"/>
    <trip id="25" depart="60.00" from="E3_6_SEB" to="E6_7_EB"/>
    <trip id="26" depart="62.40" from="E3_5_SEB" to="E3_5_SEB"/>
    <trip id="27" depart="64.80" from="E3_6_SEB" to="E5_6_SWB"/>
    <trip id="28" depart="67.20" from="E3_4_WB" to="E5_6_NEB"/>
    <trip id="29" depart="69.60" from="E2_5_SB" to="E5_6_NEB"/>
    <trip id="30" depart="72.00" from="E2_3_EB" to="E3_6_NWB"/>
    <trip id="31" depart="74.40" from="E3_6_NWB" to="E6_7_EB"/>
    <trip id="32" depart="76.80" from="E2_3_EB" to="E3_5_NWB"/>
    <trip id="33" depart="79.20" from="E2_3_EB" to="E3_6_SEB"/>
    <trip id="34" depart="81.60" from="E2_3_WB" to="E2_5_SB"/>
    <trip id="35" depart="84.00" from="E3_4_WB" to="E3_5_NWB"/>
    <trip id="36" depart="86.40" from="E5_6_SWB" to="E3_6_SEB"/>
    <trip id="37" depart="88.80" from="E3_4_WB" to="E2_5_NB"/>
    <trip id="38" depart="91.20" from="E3_6_NWB" to="E3_5_SEB"/>
    <trip id="39" depart="93.60" from="E3_5_NWB" to="E2_3_EB"/>
    <trip id="40" depart="96.00" from="E3_5_NWB" to="E3_4_EB"/>
    <trip id="41" depart="98.40" from="E3_6_NWB" to="E3_5_NWB"/>
    <trip id="42" depart="100.80" from="E3_6_SEB" to="E2_5_SB"/>
    <trip id="43" depart="103.20" from="E3_6_NWB" to="E5_6_SWB"/>
    <trip id="44" depart="105.60" from="E1_2_EB" to="E3_6_SEB"/>
    <trip id="45" depart="108.00" from="E1_2_EB" to="E3_5_SEB"/>
    <trip id="46" depart="110.40" from="E5_6_NEB" to="E2_3_WB"/>
    <trip id="47" depart="112.80" from="E3_5_NWB" to="E2_3_WB"/>
    <trip id="48" depart="115.20" from="E3_5_SEB" to="E5_6_NEB"/>
    <trip id="49" depart="117.60" from="E2_5_NB" to="E2_5_SB"/>
    <trip id="50" depart="120.00" from="E3_5_NWB" to="E3_5_SEB"/>
    <trip id="51" depart="122.40" from="E2_5_NB" to="E5_6_NEB"/>
    <trip id="52" depart="124.80" from="E3_6_NWB" to="E2_5_NB"/>
    <trip id="53" depart="127.20" from="E2_5_SB" to="E3_4_EB"/>
    <trip id="54" depart="129.60" from="E2_5_NB" to="E3_5_SEB"/>
    <trip id="55" depart="132.00" from="E5_6_NEB" to="E3_5_SEB"/>
    <trip id="56" depart="134.40" from="E3_6_SEB" to="E5_6_SWB"/>
    <trip id="57" depart="136.80" from="E5_6_SWB" to="E2_5_SB"/>
    <trip id="58" depart="139.20" from="E1_2_EB" to="E2_3_EB"/>
    <trip id="59" depart="141.60" from="E3_5_NWB" to="E3_6_SEB"/>
    <trip id="60" depart="144.00" from="E3_6_SEB" to="E3_6_SEB"/>
    <trip id="61" depart="146.40" from="E2_5_SB" to="E2_5_NB"/>
    <trip id="62" depart="148.80" from="E1_2_EB" to="E2_3_WB"/>
    <trip id="63" depart="151.20" from="E1_2_EB" to="E2_5_SB"/>
    <trip id="64" depart="153.60" from="E3_4_WB" to="E5_6_NEB"/>
    <trip id="65" depart="156.00" from="E3_4_WB" to="E6_7_EB"/>
    <trip id="66" depart="158.40" from="E5_6_SWB" to="E6_7_EB"/>
    <trip id="67" depart="160.80" from="E3_5_NWB" to="E5_6_SWB"/>
    <trip id="68" depart="163.20" from="E2_3_WB" to="E3_5_NWB"/>
    <trip id="69" depart="165.60" from="E2_3_WB" to="E3_6_SEB"/>
    <trip id="70" depart="168.00" from="E3_6_NWB" to="E3_5_NWB"/>
    <trip id="71" depart="170.40" from="E3_4_WB" to="E3_5_NWB"/>
    <trip id="72" depart="172.80" from="E5_6_NEB" to="E3_4_EB"/>
    <trip id="73" depart="175.20" from="E3_5_NWB" to="E3_5_NWB"/>
    <trip id="74" depart="177.60" from="E3_6_SEB" to="E2_3_EB"/>
    <trip id="75" depart="180.00" from="E5_6_SWB" to="E2_5_NB"/>
    <trip id="76" depart="182.40" from="E3_5_SEB" to="E3_4_EB"/>
    <trip id="77" depart="184.80" from="E5_6_SWB" to="E3_5_NWB"/>
    <trip id="78" depart="187.20" from="E1_2_EB" to="E3_5_NWB"/>
    <trip id="79" depart="189.60" from="E3_5_SEB" to="E5_6_SWB"/>
    <trip id="80" depart="192.00" from="E3_6_NWB" to="E2_3_EB"/>
    <trip id="81" depart="194.40" from="E3_5_NWB" to="E3_6_NWB"/>
    <trip id="82" depart="196.80" from="E2_3_EB" to="E5_6_NEB"/>
    <trip id="83" depart="199.20" from="E5_6_NEB" to="E3_6_NWB"/>
    <trip id="84" depart="201.60" from="E5_6_NEB" to="E3_6_SEB"/>
    <trip id="85" depart="204.00" from="E2_3_WB" to="E2_5_NB"/>
    <trip id="86" depart="206.40" from="E2_5_SB" to="E3_5_NWB"/>
    <trip id="87" depart="208.80" from="E5_6_SWB" to="E2_5_SB"/>
    <trip id="88" depart="211.20" from="E5_6_SWB" to="E3_5_NWB"/>
    <trip id="89" depart="213.60" from="E2_5_SB" to="E3_6_SEB"/>
    <trip id="90" depart="216.00" from="E3_6_NWB" to="E2_5_SB"/>
    <trip id="91" depart="218.40" from="E2_3_WB" to="E3_6_SEB"/>
    <trip id="92" depart="220.80" from="E2_3_WB" to="E3_5_NWB"/>
    <trip id="93" depart="223.20" from="E2_5_SB" to="E2_5_SB"/>
    <trip id="94" depart="225.60" from="E3_4_WB" to="E6_7_EB"/>
    <trip id="95" depart="228.00" from="E3_4_WB" to="E3_5_SEB"/>
    <trip id="96" depart="230.40" from="E3_5_SEB" to="E2_5_SB"/>
    <trip id="97" depart="232.80" from="E2_5_NB" to="E2_3_EB"/>
    <trip id="98" depart="235.20" from="E3_6_NWB" to="E2_5_NB"/>
    <trip id="99" depart="237.60" from="E3_5_SEB" to="E2_5_NB"/>
    <trip id="100" depart="240.00" from="E3_5_NWB" to="E6_7_EB"/>
    <trip id="101" depart="242.40" from="E2_3_WB" to="E2_3_EB"/>
    <trip id="102" depart="244.80" from="E5_6_NEB" to="E3_6_SEB"/>
    <trip id="103" depart="247.20" from="E3_6_SEB" to="E3_6_SEB"/>
    <trip id="104" depart="249.60" from="E5_6_NEB" to="E5_6_NEB"/>
    <trip id="105" depart="252.00" from="E3_4_WB" to="E2_5_SB"/>
    <trip id="106" depart="254.40" from="E1_2_EB" to="E3_6_NWB"/>
    <trip id="107" depart="256.80" from="E5_6_NEB" to="E2_3_EB"/>
    <trip id="108" depart="259.20" from="E3_5_NWB" to="E3_5_NWB"/>
    <trip id="109" depart="261.60" from="E2_5_SB" to="E3_4_EB"/>
    <trip id="110" depart="264.00" from="E5_6_NEB" to="E3_4_EB"/>
    <trip id="111" depart="266.40" from="E3_6_SEB" to="E5_6_SWB"/>
    <trip id="112" depart="268.80" from="E1_2_EB" to="E5_6_NEB"/>
    <trip id="113" depart="271.20" from="E3_5_SEB" to="E2_3_WB"/>
    <trip id="114" depart="273.60" from="E3_5_NWB" to="E3_5_NWB"/>
    <trip id="115" depart="276.00" from="E5_6_SWB" to="E2_5_NB"/>
    <trip id="116" depart="278.40" from="E3_4_WB" to="E6_7_EB"/>
    <trip id="117" depart="280.80" from="E3_5_NWB" to="E2_5_NB"/>
    <trip id="118" depart="283.20" from="E2_3_WB" to="E3_6_NWB"/>
    <trip id="119" depart="285.60" from="E2_3_EB" to="E3_4_EB"/>
    <trip id="120" depart="288.00" from="E2_3_WB" to="E5_6_SWB"/>
    <trip id="121" depart="290.40" from="E3_4_WB" to="E3_6_NWB"/>
    <trip id="122" depart="292.80" from="E3_5_NWB" to="E3_6_SEB"/>
    <trip id="123" depart="295.20" from="E1_2_EB" to="E5_6_SWB"/>
    <trip id="124" depart="297.60" from="E2_3_WB" to="E3_4_EB"/>
    <trip id="125" depart="300.00" from="E2_3_EB" to="E3_4_EB"/>
    <trip id="126" depart="302.40" from="E3_5_SEB" to="E3_4_EB"/>
    <trip id="127" depart="304.80" from="E1_2_EB" to="E3_6_SEB"/>
    <trip id="128" depart="307.20" from="E5_6_NEB" to="E3_6_NWB"/>
    <trip id="129" depart="309.60" from="E5_6_SWB" to="E2_5_NB"/>
    <trip id="130" depart="312.00" from="E3_5_NWB" to="E2_3_WB"/>
    <trip id="131" depart="314.40" from="E3_6_NWB" to="E3_5_SEB"/>
    <trip id="132" depart="316.80" from="E2_5_NB" to="E3_5_NWB"/>
    <trip id="133" depart="319.20" from="E3_6_SEB" to="E2_5_NB"/>
    <trip id="134" depart="321.60" from="E3_5_SEB" to="E2_3_EB"/>
    <trip id="135" depart="324.00" from="E3_5_SEB" to="E5_6_NEB"/>
    <trip id="136" depart="326.40" from="E2_5_SB" to="E2_5_NB"/>
    <trip id="137" depart="328.80" from="E2_5_NB" to="E3_5_SEB"/>
    <trip id="138" depart="331.20" from="E3_6_NWB" to="E2_3_WB"/>
    <trip id="139" depart="333.60" from="E3_6_NWB" to="E2_3_WB"/>
    <trip id="140" depart="336.00" from="E5_6_SWB" to="E2_5_SB"/>
    <trip id="141" depart="338.40" from="E3_4_WB" to="E3_5_SEB"/>
    <trip id="142" depart="340.80" from="E3_6_NWB" to="E3_6_NWB"/>
    <trip id="143" depart="343.20" from="E2_3_EB" to="E3_6_SEB"/>
    <trip id="144" depart="345.60" from="E2_5_SB" to="E2_3_WB"/>
    <trip id="145" depart="348.00" from="E5_6_NEB" to="E3_5_NWB"/>
    <trip id="146" depart="350.40" from="E3_5_NWB" to="E2_3_WB"/>
    <trip id="147" depart="352.80" from="E2_5_SB" to="E5_6_SWB"/>
    <trip id="148" depart="355.20" from="E2_3_EB" to="E3_5_NWB"/>
    <trip id="149" depart="357.60" from="E3_4_WB" to="E3_5_SEB"/>
    <trip id="150" depart="360.00" from="E3_6_SEB" to="E3_5_SEB"/>
    <trip id="151" depart="362.40" from="E1_2_EB" to="E3_5_SEB"/>
    <trip id="152" depart="364.80" from="E1_2_EB" to="E6_7_EB"/>
    <trip id="153" depart="367.20" from="E1_2_EB" to="E3_6_SEB"/>
    <trip id="154" depart="369.60" from="E2_3_WB" to="E2_5_NB"/>
    <trip id="155" depart="372.00" from="E2_3_EB" to="E3_6_SEB"/>
    <trip id="156" depart="374.40" from="E3_6_SEB" to="E2_3_EB"/>
    <trip id="157" depart="376.80" from="E5_6_NEB" to="E2_5_NB"/>
    <trip id="158" depart="379.20" from="E3_6_SEB" to="E3_5_NWB"/>
    <trip id="159" depart="381.60" from="E5_6_SWB" to="E2_5_SB"/>
    <trip id="160" depart="384.00" from="E3_6_NWB" to="E3_5_NWB"/>
    <trip id="161" depart="386.40" from="E2_5_SB" to="E2_5_NB"/>
    <trip id="162" depart="388.80" from="E3_6_NWB" to="E3_4_EB"/>
    <trip id="163" depart="391.20" from="E5_6_NEB" to="E3_6_SEB"/>
    <trip id="164" depart="393.60" from="E3_6_SEB" to="E2_3_WB"/>
    <trip id="165" depart="396.00" from="E3_5_SEB" to="E2_5_NB"/>
    <trip id="166" depart="398.40" from="E5_6_NEB" to="E2_3_WB"/>
    <trip id="167" depart="400.80" from="E3_5_NWB" to="E5_6_NEB"/>
    <trip id="168" depart="403.20" from="E3_5_SEB" to="E5_6_SWB"/>
    <trip id="169" depart="405.60" from="E2_5_NB" to="E2_3_EB"/>
    <trip id="170" depart="408.00" from="E1_2_EB" to="E5_6_SWB"/>
    <trip id="171" depart="410.40" from="E5_6_SWB" to="E5_6_NEB"/>
    <trip id="172" depart="412.80" from="E3_6_NWB" to="E3_4_EB"/>
    <trip id="173" depart="415.20" from="E3_5_NWB" to="E2_5_NB"/>
    <trip id="174" depart="417.60" from="E2_5_SB" to="E2_5_NB"/>
    <trip id="175" depart="420.00" from="E2_3_WB" to="E5_6_SWB"/>
    <trip id="176" depart="422.40" from="E5_6_SWB" to="E2_5_NB"/>
    <trip id="177" depart="424.80" from="E1_2_EB" to="E3_6_NWB"/>
    <trip id="178" depart="427.20" from="E2_5_NB" to="E3_6_NWB"/>
    <trip id="179" depart="429.60" from="E2_5_SB" to="E2_3_EB"/>
    <trip id="180" depart="432.00" from="E2_3_EB" to="E2_5_NB"/>
    <trip id="181" depart="434.40" from="E2_3_EB" to="E6_7_EB"/>
    <trip id="182" depart="436.80" from="E1_2_EB" to="E3_5_NWB"/>
    <trip id="183" depart="439.20" from="E2_3_EB" to="E6_7_EB"/>
    <trip id="184" depart="441.60" from="E2_5_NB" to="E5_6_NEB"/>
    <trip id="185" depart="444.00" from="E2_5_SB" to="E3_6_NWB"/>
    <trip id="186" depart="446.40" from="E3_5_NWB" to="E3_5_SEB"/>
    <trip id="187" depart="448.80" from="E3_5_NWB" to="E2_3_WB"/>
    <trip id="188" depart="451.20" from="E2_5_SB" to="E3_6_SEB"/>
    <trip id="189" depart="453.60" from="E3_6_NWB" to="E2_5_NB"/>
    <trip id="190" depart="456.00" from="E3_5_NWB" to="E3_4_EB"/>
    <trip id="191" depart="458.40" from="E3_6_NWB" to="E6_7_EB"/>
    <trip id="192" depart="460.80" from="E2_5_SB" to="E5_6_SWB"/>
    <trip id="193" depart="463.20" from="E3_5_NWB" to="E2_5_NB"/>
    <trip id="194" depart="465.60" from="E3_5_NWB" to="E3_6_NWB"/>
    <trip id="195" depart="468.00" from="E3_6_NWB" to="E6_7_EB"/>
    <trip id="196" depart="470.40" from="E1_2_EB" to="E2_5_SB"/>
    <trip id="197" depart="472.80" from="E2_3_EB" to="E2_5_NB"/>
    <trip id="198" depart="475.20" from="E2_3_WB" to="E3_5_NWB"/>
    <trip id="199" depart="477.60" from="E1_2_EB" to="E3_6_NWB"/>
    <trip id="200" depart="480.00" from="E3_4_WB" to="E3_6_NWB"/>
    <trip id="201" depart="482.40" from="E2_3_EB" to="E3_6_SEB"/>
    <trip id="202" depart="484.80" from="E5_6_SWB" to="E2_5_NB"/>
    <trip id="203" depart="487.20" from="E3_6_SEB" to="E3_5_SEB"/>
    <trip id="204" depart="489.60" from="E2_3_WB" to="E3_5_NWB"/>
    <trip id="205" depart="492.00" from="E3_4_WB" to="E3_4_EB"/>
    <trip id="206" depart="494.40" from="E1_2_EB" to="E3_5_SEB"/>
    <trip id="207" depart="496.80" from="E3_5_NWB" to="E2_5_SB"/>
    <trip id="208" depart="499.20" from="E3_5_SEB" to="E2_5_NB"/>
    <trip id="209" depart="501.60" from="E3_5_NWB" to="E2_5_SB"/>
    <trip id="210" depart="504.00" from="E2_5_NB" to="E3_6_SEB"/>
    <trip id="211" depart="506.40" from="E5_6_SWB" to="E2_5_SB"/>
    <trip id="212" depart="508.80" from="E5_6_NEB" to="E3_5_NWB"/>
    <trip id="213" depart="511.20" from="E5_6_NEB" to="E2_3_EB"/>
    <trip id="214" depart="513.60" from="E1_2_EB" to="E3_5_SEB"/>
    <trip id="215" depart="516.00" from="E3_5_NWB" to="E3_6_NWB"/>
    <trip id="216" depart="518.40" from="E3_6_NWB" to="E3_6_NWB"/>
    <trip id="217" depart="520.80" from="E2_5_NB" to="E3_6_NWB"/>
    <trip id="218" depart="523.20" from="E5_6_SWB" to="E2_5_NB"/>
    <trip id="219" depart="525.60" from="E3_4_WB" to="E3_6_NWB"/>
    <trip id="220" depart="528.00" from="E2_5_SB" to="E2_3_EB"/>
    <trip id="221" depart="530.40" from="E1_2_EB" to="E3_5_NWB"/>
    <trip id="222" depart="532.80" from="E2_3_EB" to="E5_6_SWB"/>
    <trip id="223" depart="535.20" from="E3_6_SEB" to="E2_3_WB"/>
    <trip id="224" depart="537.60" from="E2_5_NB" to="E2_3_EB"/>
    <trip id="225" depart="540.00" from="E3_5_SEB" to="E3_5_SEB"/>
    <trip id="226" depart="542.40" from="E3_5_NWB" to="E2_3_WB"/>
    <trip id="227" depart="544.80" from="E1_2_EB" to="E2_3_EB"/>
    <trip id="228" depart="547.20" from="E3_6_NWB" to="E6_7_EB"/>
    <trip id="229" depart="549.60" from="E2_3_EB" to="E6_7_EB"/>
    <trip id="230" depart="552.00" from="E3_6_NWB" to="E3_4_EB"/>
    <trip id="231" depart="554.40" from="E3_6_NWB" to="E3_5_SEB"/>
    <trip id="232" depart="556.80" from="E2_3_WB" to="E2_3_WB"/>
    <trip id="233" depart="559.20" from="E3_5_SEB" to="E3_6_SEB"/>
    <trip id="234" depart="561.60" from="E3_5_SEB" to="E6_7_EB"/>
    <trip id="235" depart="564.00" from="E3_4_WB" to="E3_5_NWB"/>
    <trip id="236" depart="566.40" from="E5_6_NEB" to="E2_5_NB"/>
    <trip id="237" depart="568.80" from="E3_6_NWB" to="E3_4_EB"/>
    <trip id="238" depart="571.20" from="E2_5_NB" to="E5_6_SWB"/>
    <trip id="239" depart="573.60" from="E2_5_NB" to="E2_3_EB"/>
    <trip id="240" depart="576.00" from="E2_5_NB" to="E6_7_EB"/>
    <trip id="241" depart="578.40" from="E3_4_WB" to="E3_6_NWB"/>
    <trip id="242" depart="580.80" from="E3_6_NWB" to="E3_6_NWB"/>
    <trip id="243" depart="583.20" from="E3_5_SEB" to="E2_5_NB"/>
    <trip id="244" depart="585.60" from="E3_6_NWB" to="E2_5_SB"/>
    <trip id="245" depart="588.00" from="E2_3_WB" to="E3_5_SEB"/>
    <trip id="246" depart="590.40" from="E2_3_EB" to="E2_5_SB"/>
    <trip id="247" depart="592.80" from="E5_6_SWB" to="E3_5_SEB"/>
    <trip id="248" depart="595.20" from="E3_5_SEB" to="E2_5_NB"/>
    <trip id="249" depart="597.60" from="E2_5_NB" to="E5_6_SWB"/>
    <trip id="250" depart="600.00" from="E3_5_NWB" to="E3_6_SEB"/>
    <vehicle id="agent" depart="600">
        <route edges="E1_2_EB E2_3_EB E3_5_NWB E5_6_NEB E6_7_EB"/>
    </vehicle>
    <trip id="251" depart="602.40" from="E3_6_NWB" to="E2_5_NB"/>
    <trip id="252" depart="604.80" from="E2_3_EB" to="E5_6_NEB"/>
    <trip id="253" depart="607.20" from="E2_3_WB" to="E3_4_EB"/>
    <trip id="254" depart="609.60" from="E3_5_NWB" to="E3_5_NWB"/>
    <trip id="255" depart="612.00" from="E3_6_NWB" to="E2_3_EB"/>
    <trip id="256" depart="614.40" from="E3_4_WB" to="E5_6_SWB"/>
    <trip id="257" depart="616.80" from="E2_3_EB" to="E6_7_EB"/>
    <trip id="258" depart="619.20" from="E3_6_SEB" to="E3_5_SEB"/>
    <trip id="259" depart="621.60" from="E2_5_SB" to="E2_5_NB"/>
    <trip id="260" depart="624.00" from="E3_5_NWB" to="E5_6_NEB"/>
    <trip id="261" depart="626.40" from="E3_6_SEB" to="E6_7_EB"/>
    <trip id="262" depart="628.80" from="E3_6_NWB" to="E3_5_NWB"/>
    <trip id="263" depart="631.20" from="E2_5_SB" to="E5_6_NEB"/>
    <trip id="264" depart="633.60" from="E2_3_EB" to="E3_5_NWB"/>
    <trip id="265" depart="636.00" from="E3_5_SEB" to="E5_6_SWB"/>
    <trip id="266" depart="638.40" from="E3_5_NWB" to="E2_3_EB"/>
    <trip id="267" depart="640.80" from="E3_4_WB" to="E3_6_NWB"/>
    <trip id="268" depart="643.20" from="E2_5_NB" to="E3_5_NWB"/>
    <trip id="269" depart="645.60" from="E2_5_NB" to="E5_6_NEB"/>
    <trip id="270" depart="648.00" from="E3_5_NWB" to="E3_6_NWB"/>
    <trip id="271" depart="650.40" from="E2_5_SB" to="E2_3_WB"/>
    <trip id="272" depart="652.80" from="E2_3_WB" to="E5_6_SWB"/>
    <trip id="273" depart="655.20" from="E5_6_SWB" to="E2_3_EB"/>
    <trip id="274" depart="657.60" from="E1_2_EB" to="E3_6_SEB"/>
    <trip id="275" depart="660.00" from="E3_5_NWB" to="E3_5_NWB"/>
    <trip id="276" depart="662.40" from="E3_5_NWB" to="E5_6_NEB"/>
    <trip id="277" depart="664.80" from="E2_3_EB" to="E5_6_NEB"/>
    <trip id="278" depart="667.20" from="E3_5_NWB" to="E2_5_NB"/>
    <trip id="279" depart="669.60" from="E3_5_SEB" to="E3_6_NWB"/>
    <trip id="280" depart="672.00" from="E2_3_EB" to="E2_5_SB"/>
    <trip id="281" depart="674.40" from="E3_5_NWB" to="E2_5_SB"/>
    <trip id="282" depart="676.80" from="E2_5_NB" to="E5_6_SWB"/>
    <trip id="283" depart="679.20" from="E3_5_NWB" to="E2_3_EB"/>
    <trip id="284" depart="681.60" from="E1_2_EB" to="E2_3_WB"/>
    <trip id="285" depart="684.00" from="E5_6_SWB" to="E2_3_EB"/>
    <trip id="286" depart="686.40" from="E3_6_NWB" to="E3_5_SEB"/>
    <trip id="287" depart="688.80" from="E2_5_SB" to="E2_3_EB"/>
    <trip id="288" depart="691.20" from="E3_5_NWB" to="E3_4_EB"/>
    <trip id="289" depart="693.60" from="E1_2_EB" to="E3_4_EB"/>
    <trip id="290" depart="696.00" from="E5_6_SWB" to="E3_6_NWB"/>
    <trip id="291" depart="698.40" from="E3_6_NWB" to="E2_5_SB"/>
    <trip id="292" depart="700.80" from="E2_5_NB" to="E3_6_NWB"/>
    <trip id="293" depart="703.20" from="E2_3_WB" to="E2_3_WB"/>
    <trip id="294" depart="705.60" from="E2_5_SB" to="E3_5_NWB"/>
    <trip id="295" depart="708.00" from="E3_4_WB" to="E5_6_NEB"/>
    <trip id="296" depart="710.40" from="E3_5_NWB" to="E3_4_EB"/>
    <trip id="297" depart="712.80" from="E3_4_WB" to="E2_5_NB"/>
    <trip id="298" depart="715.20" from="E3_6_NWB" to="E2_3_EB"/>
    <trip id="299" depart="717.60" from="E5_6_NEB" to="E3_6_NWB"/>
    <trip id="300" depart="720.00" from="E2_3_EB" to="E3_5_NWB"/>
    <trip id="301" depart="722.40" from="E2_3_EB" to="E3_5_NWB"/>
    <trip id="302" depart="724.80" from="E2_5_SB" to="E2_5_SB"/>
    <trip id="303" depart="727.20" from="E2_3_EB" to="E3_4_EB"/>
    <trip id="304" depart="729.60" from="E2_5_SB" to="E3_5_NWB"/>
    <trip id="305" depart="732.00" from="E2_3_EB" to="E2_5_NB"/>
    <trip id="306" depart="734.40" from="E2_5_NB" to="E3_5_SEB"/>
    <trip id="307" depart="736.80" from="E5_6_SWB" to="E2_5_NB"/>
    <trip id="308" depart="739.20" from="E2_5_SB" to="E5_6_NEB"/>
    <trip id="309" depart="741.60" from="E2_3_EB" to="E2_5_SB"/>
    <trip id="310" depart="744.00" from="E2_5_NB" to="E2_3_EB"/>
    <trip id="311" depart="746.40" from="E5_6_SWB" to="E2_3_EB"/>
    <trip id="312" depart="748.80" from="E2_5_NB" to="E2_3_EB"/>
    <trip id="313" depart="751.20" from="E3_5_NWB" to="E2_5_SB"/>
    <trip id="314" depart="753.60" from="E3_6_NWB" to="E5_6_SWB"/>
    <trip id="315" depart="756.00" from="E5_6_NEB" to="E5_6_NEB"/>
    <trip id="316" depart="758.40" from="E3_5_SEB" to="E3_5_NWB"/>
    <trip id="317" depart="760.80" from="E3_6_SEB" to="E5_6_SWB"/>
    <trip id="318" depart="763.20" from="E2_5_SB" to="E3_4_EB"/>
    <trip id="319" depart="765.60" from="E5_6_SWB" to="E3_6_NWB"/>
    <trip id="320" depart="768.00" from="E1_2_EB" to="E2_5_SB"/>
    <trip id="321" depart="770.40" from="E2_5_SB" to="E6_7_EB"/>
    <trip id="322" depart="772.80" from="E3_5_SEB" to="E2_5_NB"/>
    <trip id="323" depart="775.20" from="E3_5_NWB" to="E3_5_NWB"/>
    <trip id="324" depart="777.60" from="E5_6_SWB" to="E3_6_SEB"/>
    <trip id="325" depart="780.00" from="E1_2_EB" to="E3_5_NWB"/>
    <trip id="326" depart="782.40" from="E1_2_EB" to="E3_4_EB"/>
    <trip id="327" depart="784.80" from="E3_5_SEB" to="E3_4_EB"/>
    <trip id="328" depart="787.20" from="E3_4_WB" to="E2_3_WB"/>
    <trip id="329" depart="789.60" from="E2_5_SB" to="E2_5_NB"/>
    <trip id="330" depart="792.00" from="E3_5_NWB" to="E3_6_SEB"/>
    <trip id="331" depart="794.40" from="E5_6_SWB" to="E2_5_SB"/>
    <trip id="332" depart="796.80" from="E3_6_NWB" to="E3_6_SEB"/>
    <trip id="333" depart="799.20" from="E1_2_EB" to="E3_5_SEB"/>
    <trip id="334" depart="801.60" from="E2_5_SB" to="E2_3_EB"/>
    <trip id="335" depart="804.00" from="E5_6_NEB" to="E5_6_SWB"/>
    <trip id="336" depart="806.40" from="E2_5_NB" to="E2_3_EB"/>
    <trip id="337" depart="808.80" from="E5_6_NEB" to="E2_5_NB"/>
    <trip id="338" depart="811.20" from="E3_4_WB" to="E2_5_NB"/>
    <trip id="339" depart="813.60" from="E2_3_WB" to="E6_7_EB"/>
    <trip id="340" depart="816.00" from="E1_2_EB" to="E2_3_EB"/>
    <trip id="341" depart="818.40" from="E1_2_EB" to="E3_6_NWB"/>
    <trip id="342" depart="820.80" from="E3_5_SEB" to="E5_6_NEB"/>
    <trip id="343" depart="823.20" from="E2_5_NB" to="E3_5_NWB"/>
    <trip id="344" depart="825.60" from="E3_6_NWB" to="E6_7_EB"/>
    <trip id="345" depart="828.00" from="E3_6_SEB" to="E3_5_SEB"/>
    <trip id="346" depart="830.40" from="E5_6_NEB" to="E6_7_EB"/>
    <trip id="347" depart="832.80" from="E1_2_EB" to="E2_3_EB"/>
    <trip id="348" depart="835.20" from="E1_2_EB" to="E5_6_SWB"/>
    <trip id="349" depart="837.60" from="E5_6_SWB" to="E2_3_WB"/>
    <trip id="350" depart="840.00" from="E3_4_WB" to="E2_5_SB"/>
    <trip id="351" depart="842.40" from="E2_3_WB" to="E2_5_NB"/>
    <trip id="352" depart="844.80" from="E5_6_SWB" to="E3_5_NWB"/>
    <trip id="353" depart="847.20" from="E3_6_NWB" to="E3_5_SEB"/>
    <trip id="354" depart="849.60" from="E2_3_WB" to="E2_5_NB"/>
    <trip id="355" depart="852.00" from="E5_6_NEB" to="E3_5_NWB"/>
    <trip id="356" depart="854.40" from="E5_6_NEB" to="E2_5_NB"/>
    <trip id="357" depart="856.80" from="E3_6_NWB" to="E5_6_SWB"/>
    <trip id="358" depart="859.20" from="E1_2_EB" to="E3_6_SEB"/>
    <trip id="359" depart="861.60" from="E3_6_SEB" to="E5_6_SWB"/>
    <trip id="360" depart="864.00" from="E2_3_EB" to="E3_5_SEB"/>
    <trip id="361" depart="866.40" from="E2_3_WB" to="E3_5_SEB"/>
    <trip id="362" depart="868.80" from="E3_6_SEB" to="E6_7_EB"/>
    <trip id="363" depart="871.20" from="E2_5_NB" to="E3_5_NWB"/>
    <trip id="364" depart="873.60" from="E3_6_SEB" to="E5_6_SWB"/>
    <trip id="365" depart="876.00" from="E2_3_EB" to="E3_6_NWB"/>
    <trip id="366" depart="878.40" from="E2_3_WB" to="E2_5_SB"/>
    <trip id="367" depart="880.80" from="E3_4_WB" to="E3_5_SEB"/>
    <trip id="368" depart="883.20" from="E3_4_WB" to="E3_6_NWB"/>
    <trip id="369" depart="885.60" from="E5_6_NEB" to="E5_6_NEB"/>
    <trip id="370" depart="888.00" from="E2_5_SB" to="E2_5_NB"/>
    <trip id="371" depart="890.40" from="E2_5_NB" to="E2_5_NB"/>
    <trip id="372" depart="892.80" from="E2_5_NB" to="E2_5_SB"/>
    <trip id="373" depart="895.20" from="E3_6_SEB" to="E3_4_EB"/>
    <trip id="374" depart="897.60" from="E5_6_NEB" to="E3_6_SEB"/>
    <trip id="375" depart="900.00" from="E2_3_WB" to="E3_6_SEB"/>
    <trip id="376" depart="902.40" from="E5_6_SWB" to="E2_3_WB"/>
    <trip id="377" depart="904.80" from="E3_5_NWB" to="E3_6_SEB"/>
    <trip id="378" depart="907.20" from="E5_6_SWB" to="E2_3_EB"/>
    <trip id="379" depart="909.60" from="E2_5_SB" to="E2_3_EB"/>
    <trip id="380" depart="912.00" from="E3_4_WB" to="E6_7_EB"/>
    <trip id="381" depart="914.40" from="E3_6_NWB" to="E2_5_NB"/>
    <trip id="382" depart="916.80" from="E3_5_SEB" to="E2_3_WB"/>
    <trip id="383" depart="919.20" from="E2_5_SB" to="E2_3_WB"/>
    <trip id="384" depart="921.60" from="E2_3_WB" to="E3_6_SEB"/>
    <trip id="385" depart="924.00" from="E5_6_SWB" to="E3_5_NWB"/>
    <trip id="386" depart="926.40" from="E3_5_SEB" to="E2_5_NB"/>
    <trip id="387" depart="928.80" from="E2_5_NB" to="E3_6_SEB"/>
    <trip id="388" depart="931.20" from="E3_6_SEB" to="E2_3_WB"/>
    <trip id="389" depart="933.60" from="E3_6_NWB" to="E5_6_SWB"/>
    <trip id="390" depart="936.00" from="E1_2_EB" to="E2_5_SB"/>
    <trip id="391" depart="938.40" from="E2_3_WB" to="E2_3_EB"/>
    <trip id="392" depart="940.80" from="E3_6_NWB" to="E6_7_EB"/>
    <trip id="393" depart="943.20" from="E2_5_NB" to="E3_5_SEB"/>
    <trip id="394" depart="945.60" from="E2_3_EB" to="E3_6_SEB"/>
    <trip id="395" depart="948.00" from="E2_5_SB" to="E2_3_EB"/>
    <trip id="396" depart="950.40" from="E3_4_WB" to="E3_4_EB"/>
    <trip id="397" depart="952.80" from="E5_6_NEB" to="E2_5_NB"/>
    <trip id="398" depart="955.20" from="E3_5_SEB" to="E3_5_SEB"/>
    <trip id="399" depart="957.60" from="E2_3_WB" to="E3_5_SEB"/>
    <trip id="400" depart="960.00" from="E5_6_SWB" to="E5_6_NEB"/>
    <trip id="401" depart="962.40" from="E1_2_EB" to="E6_7_EB"/>
    <trip id="402" depart="964.80" from="E2_3_EB" to="E3_6_SEB"/>
    <trip id="403" depart="967.20" from="E5_6_SWB" to="E5_6_NEB"/>
    <trip id="404" depart="969.60" from="E2_5_SB" to="E2_3_EB"/>
    <trip id="405" depart="972.00" from="E3_5_SEB" to="E3_6_NWB"/>
    <trip id="406" depart="974.40" from="E2_5_SB" to="E2_3_EB"/>
    <trip id="407" depart="976.80" from="E3_6_NWB" to="E3_5_NWB"/>
    <trip id="408" depart="979.20" from="E3_5_SEB" to="E3_4_EB"/>
    <trip id="409" depart="981.60" from="E3_6_SEB" to="E2_3_EB"/>
    <trip id="410" depart="984.00" from="E2_5_NB" to="E3_5_SEB"/>
    <trip id="411" depart="986.40" from="E3_5_SEB" to="E3_5_SEB"/>
    <trip id="412" depart="988.80" from="E3_5_NWB" to="E3_5_SEB"/>
    <trip id="413" depart="991.20" from="E2_5_SB" to="E2_3_WB"/>
    <trip id="414" depart="993.60" from="E5_6_NEB" to="E3_5_SEB"/>
    <trip id="415" depart="996.00" from="E2_3_WB" to="E6_7_EB"/>
    <trip id="416" depart="998.40" from="E3_4_WB" to="E3_5_SEB"/>
    <trip id="417" depart="1000.80" from="E3_6_SEB" to="E6_7_EB"/>
    <trip id="418" depart="1003.20" from="E3_5_NWB" to="E3_5_NWB"/>
    <trip id="419" depart="1005.60" from="E1_2_EB" to="E3_5_SEB"/>
    <trip id="420" depart="1008.00" from="E2_5_NB" to="E3_5_SEB"/>
    <trip id="421" depart="1010.40" from="E2_5_SB" to="E5_6_NEB"/>
    <trip id="422" depart="1012.80" from="E1_2_EB" to="E2_3_EB"/>
    <trip id="423" depart="1015.20" from="E3_4_WB" to="E5_6_SWB"/>
    <trip id="424" depart="1017.60" from="E2_3_EB" to="E3_5_SEB"/>
    <trip id="425" depart="1020.00" from="E2_3_EB" to="E2_5_NB"/>
    <trip id="426" depart="1022.40" from="E3_6_SEB" to="E3_5_SEB"/>
    <trip id="427" depart="1024.80" from="E2_3_WB" to="E2_3_EB"/>
    <trip id="428" depart="1027.20" from="E3_4_WB" to="E3_6_NWB"/>
    <trip id="429" depart="1029.60" from="E2_5_SB" to="E2_5_SB"/>
    <trip id="430" depart="1032.00" from="E2_5_NB" to="E2_3_WB"/>
    <trip id="431" depart="1034.40" from="E3_6_SEB" to="E2_3_WB"/>
    <trip id="432" depart="1036.80" from="E3_6_NWB" to="E3_6_SEB"/>
    <trip id="433" depart="1039.20" from="E5_6_SWB" to="E6_7_EB"/>
    <trip id="434" depart="1041.60" from="E3_6_NWB" to="E3_5_NWB"/>
    <trip id="435" depart="1044.00" from="E1_2_EB" to="E3_5_NWB"/>
    <trip id="436" depart="1046.40" from="E3_6_NWB" to="E3_5_NWB"/>
    <trip id="437" depart="1048.80" from="E3_5_NWB" to="E2_3_WB"/>
    <trip id="438" depart="1051.20" from="E3_4_WB" to="E2_3_WB"/>
    <trip id="439" depart="1053.60" from="E5_6_NEB" to="E3_5_SEB"/>
    <trip id="440" depart="1056.00" from="E2_5_SB" to="E2_5_NB"/>
    <trip id="441" depart="1058.40" from="E3_5_NWB" to="E2_3_WB"/>
    <trip id="442" depart="1060.80" from="E3_5_SEB" to="E3_6_NWB"/>
    <trip id="443" depart="1063.20" from="E3_5_NWB" to="E6_7_EB"/>
    <trip id="444" depart="1065.60" from="E2_3_EB" to="E2_5_NB"/>