<?xml version='1.0' encoding='UTF-8'?>
<!-- generated on 2026-05-19 11:19:45.297615 by Eclipse SUMO randomTrips.py v1.26.0
<configuration>
    <net-file value="/home/miguel/6.Projects/BayesianFinalProject/sumo/networks/1st.net.xml"/>
    <output-trip-file value="/home/miguel/6.Projects/BayesianFinalProject/sumo/routes/routes.rou.xml"/>
    <seed value="8594"/>
    <end value="1200.0"/>
    <period value="1200.0"/>
</configuration>
-->
<routes xmlns:xsi="http://www.w3.org/2001/XMLSchema-instance" xsi:noNamespaceSchemaLocation="http://sumo.dlr.de/xsd/routes_file.xsd">
    <trip id="0" depart="0.00" from="E3_4_WB" to="E5_6_SWB"/>
    <vehicle id="agent" depart="600">
        <route edges="E1_2_EB E2_3_EB E3_6_NWB E6_7_EB"/>
    </vehicle>
</routes>
