<?xml version='1.0' encoding='UTF-8'?>
<!-- generated on 2026-06-07 16:24:44.899634 by Eclipse SUMO randomTrips.py v1_26_0+0000-fa7df22d7f1
<configuration>
    <net-file value="/home/miguel/6.Projects/BayesianFinalProject/sumo/networks/1st_koh.net.xml"/>
    <output-trip-file value="/home/miguel/6.Projects/BayesianFinalProject/sumo/routes/routes.rou.xml"/>
    <seed value="77838"/>
    <end value="540.0"/>
    <period value="3.4615384615384617"/>
</configuration>
-->
<routes xmlns:xsi="http://www.w3.org/2001/XMLSchema-instance" xsi:noNamespaceSchemaLocation="http://sumo.dlr.de/xsd/routes_file.xsd">
    <trip id="0" depart="0.00" from="E3_6_NWB" to="E2_3_WB"/>
    <trip id="1" depart="3.46" from="E6_7_SWB" to="E4_7_SEB"/>
    <trip id="2" depart="6.92" from="E6_7_SWB" to="E2_6_SB"/>
    <trip id="3" depart="10.38" from="E2_6_SB" to="E4_7_SEB"/>
    <trip id="4" depart="13.85" from="E1_2_EB" to="E2_3_EB"/>
    <trip id="5" depart="17.31" from="E4_7_NWB" to="E3_6_NWB"/>
    <trip id="6" depart="20.77" from="E4_5_WB" to="E7_8_NEB"/>
    <trip id="7" depart="24.23" from="E3_4_EB" to="E3_4_EB"/>
    <trip id="8" depart="27.69" from="E3_4_WB" to="E6_7_NEB"/>
    <trip id="9" depart="31.15" from="E2_6_NB" to="E4_7_SEB"/>
    <trip id="10" depart="34.62" from="E1_2_EB" to="E6_7_NEB"/>
    <trip id="11" depart="38.08" from="E3_4_WB" to="E3_4_WB"/>
    <trip id="12" depart="41.54" from="E2_3_EB" to="E4_7_SEB"/>
    <trip id="13" depart="45.00" from="E3_4_EB" to="E6_7_NEB"/>
    <trip id="14" depart="48.46" from="E4_7_SEB" to="E4_5_EB"/>
    <trip id="15" depart="51.92" from="E2_3_EB" to="E2_6_NB"/>
    <trip id="16" depart="55.38" from="E3_4_WB" to="E4_7_NWB"/>
    <trip id="17" depart="58.85" from="E6_7_NEB" to="E2_3_WB"/>
    <trip id="18" depart="62.31" from="E1_2_EB" to="E3_4_EB"/>
    <trip id="19" depart="65.77" from="E2_3_WB" to="E2_3_WB"/>
    <trip id="20" depart="69.23" from="E2_3_WB" to="E4_5_EB"/>
    <trip id="21" depart="72.69" from="E6_7_NEB" to="E3_6_SEB"/>
    <trip id="22" depart="76.15" from="E3_4_EB" to="E7_8_NEB"/>
    <trip id="23" depart="79.62" from="E4_7_SEB" to="E4_5_EB"/>
    <trip id="24" depart="83.08" from="E2_3_EB" to="E2_6_SB"/>
    <trip id="25" depart="86.54" from="E4_5_WB" to="E2_3_EB"/>
    <trip id="26" depart="90.00" from="E3_6_NWB" to="E2_3_EB"/>
    <trip id="27" depart="93.46" from="E4_7_NWB" to="E4_7_SEB"/>
    <trip id="28" depart="96.92" from="E3_4_EB" to="E2_6_SB"/>
    <trip id="29" depart="100.38" from="E2_3_EB" to="E3_4_EB"/>
    <trip id="30" depart="103.85" from="E2_3_WB" to="E4_7_SEB"/>
    <trip id="31" depart="107.31" from="E2_3_EB" to="E2_3_EB"/>
    <trip id="32" depart="110.77" from="E3_4_WB" to="E3_4_WB"/>
    <trip id="33" depart="114.23" from="E2_6_SB" to="E6_7_NEB"/>
    <trip id="34" depart="117.69" from="E6_7_SWB" to="E2_3_EB"/>
    <trip id="35" depart="121.15" from="E4_7_SEB" to="E6_7_SWB"/>
    <trip id="36" depart="124.62" from="E4_7_NWB" to="E2_3_WB"/>
    <trip id="37" depart="128.08" from="E2_3_EB" to="E6_7_NEB"/>
    <trip id="38" depart="131.54" from="E1_2_EB" to="E2_3_WB"/>
    <trip id="39" depart="135.00" from="E1_2_EB" to="E4_5_EB"/>
    <trip id="40" depart="138.46" from="E2_6_NB" to="E6_7_SWB"/>
    <trip id="41" depart="141.92" from="E3_6_NWB" to="E3_6_SEB"/>
    <trip id="42" depart="145.38" from="E2_3_WB" to="E4_5_EB"/>
    <trip id="43" depart="148.85" from="E4_7_SEB" to="E3_4_WB"/>
    <trip id="44" depart="152.31" from="E3_6_NWB" to="E2_6_NB"/>
    <trip id="45" depart="155.77" from="E2_6_SB" to="E4_7_NWB"/>
    <trip id="46" depart="159.23" from="E3_4_EB" to="E2_6_NB"/>
    <trip id="47" depart="162.69" from="E6_7_NEB" to="E3_6_SEB"/>
    <trip id="48" depart="166.15" from="E2_3_WB" to="E3_6_NWB"/>
    <trip id="49" depart="169.62" from="E2_6_NB" to="E7_8_NEB"/>
    <trip id="50" depart="173.08" from="E3_6_NWB" to="E3_6_SEB"/>
    <trip id="51" depart="176.54" from="E4_7_NWB" to="E3_4_EB"/>
    <trip id="52" depart="180.00" from="E1_2_EB" to="E6_7_SWB"/>
    <trip id="53" depart="183.46" from="E2_6_SB" to="E4_7_NWB"/>
    <trip id="54" depart="186.92" from="E2_6_SB" to="E4_7_NWB"/>
    <trip id="55" depart="190.38" from="E3_6_NWB" to="E4_7_SEB"/>
    <trip id="56" depart="193.85" from="E6_7_NEB" to="E3_4_EB"/>
    <trip id="57" depart="197.31" from="E2_3_WB" to="E6_7_SWB"/>
    <trip id="58" depart="200.77" from="E2_6_NB" to="E2_3_WB"/>
    <trip id="59" depart="204.23" from="E4_5_WB" to="E2_3_WB"/>
    <trip id="60" depart="207.69" from="E4_7_NWB" to="E7_8_NEB"/>
    <trip id="61" depart="211.15" from="E2_6_SB" to="E7_8_NEB"/>
    <trip id="62" depart="214.62" from="E4_7_NWB" to="E3_4_EB"/>
    <trip id="63" depart="218.08" from="E4_5_WB" to="E7_8_NEB"/>
    <trip id="64" depart="221.54" from="E4_7_NWB" to="E3_6_SEB"/>
    <trip id="65" depart="225.00" from="E4_7_NWB" to="E6_7_SWB"/>
    <trip id="66" depart="228.46" from="E4_5_WB" to="E2_6_SB"/>
    <trip id="67" depart="231.92" from="E6_7_SWB" to="E2_3_EB"/>
    <trip id="68" depart="235.38" from="E3_6_NWB" to="E2_6_NB"/>
    <trip id="69" depart="238.85" from="E6_7_SWB" to="E4_5_EB"/>
    <trip id="70" depart="242.31" from="E3_6_NWB" to="E2_3_WB"/>
    <trip id="71" depart="245.77" from="E2_3_EB" to="E3_6_SEB"/>
    <trip id="72" depart="249.23" from="E3_4_EB" to="E3_4_EB"/>
    <trip id="73" depart="252.69" from="E4_5_WB" to="E3_6_SEB"/>
    <trip id="74" depart="256.15" from="E3_4_WB" to="E2_3_WB"/>
    <trip id="75" depart="259.62" from="E3_6_SEB" to="E4_7_SEB"/>
    <trip id="76" depart="263.08" from="E4_7_SEB" to="E7_8_NEB"/>
    <trip id="77" depart="266.54" from="E4_7_SEB" to="E2_3_WB"/>
    <trip id="78" depart="270.00" from="E4_7_SEB" to="E6_7_SWB"/>
    <trip id="79" depart="273.46" from="E4_5_WB" to="E6_7_SWB"/>
    <trip id="80" depart="276.92" from="E2_6_SB" to="E3_6_SEB"/>
    <trip id="81" depart="280.38" from="E4_7_SEB" to="E6_7_SWB"/>
    <trip id="82" depart="283.85" from="E1_2_EB" to="E6_7_NEB"/>
    <trip id="83" depart="287.31" from="E4_7_NWB" to="E3_4_WB"/>
    <trip id="84" depart="290.77" from="E3_6_SEB" to="E4_7_NWB"/>
    <trip id="85" depart="294.23" from="E4_7_SEB" to="E6_7_SWB"/>
    <trip id="86" depart="297.69" from="E4_7_SEB" to="E2_3_EB"/>
    <trip id="87" depart="301.15" from="E3_6_SEB" to="E3_6_NWB"/>
    <trip id="88" depart="304.62" from="E3_4_WB" to="E2_3_EB"/>
    <trip id="89" depart="308.08" from="E3_4_WB" to="E3_6_NWB"/>
    <trip id="90" depart="311.54" from="E2_6_NB" to="E3_6_NWB"/>
    <trip id="91" depart="315.00" from="E4_7_NWB" to="E2_3_EB"/>
    <trip id="92" depart="318.46" from="E1_2_EB" to="E2_6_NB"/>
    <trip id="93" depart="321.92" from="E1_2_EB" to="E6_7_SWB"/>
    <trip id="94" depart="325.38" from="E3_4_EB" to="E4_7_SEB"/>
    <trip id="95" depart="328.85" from="E2_6_NB" to="E3_4_WB"/>
    <trip id="96" depart="332.31" from="E3_6_NWB" to="E3_4_WB"/>
    <trip id="97" depart="335.77" from="E3_6_SEB" to="E3_4_WB"/>
    <trip id="98" depart="339.23" from="E4_7_NWB" to="E2_6_SB"/>
    <trip id="99" depart="342.69" from="E1_2_EB" to="E2_3_EB"/>
    <trip id="100" depart="346.15" from="E2_3_EB" to="E3_4_WB"/>
    <trip id="101" depart="349.62" from="E2_3_WB" to="E6_7_NEB"/>
    <trip id="102" depart="353.08" from="E4_7_SEB" to="E2_6_NB"/>
    <trip id="103" depart="356.54" from="E3_6_SEB" to="E2_3_EB"/>
    <trip id="104" depart="360.00" from="E3_6_NWB" to="E4_5_EB"/>
    <vehicle id="agent" depart="360">
        <route edges="E1_2_EB E2_6_NB E6_7_NEB E7_8_NEB"/>
    </vehicle>
    <trip id="105" depart="363.46" from="E1_2_EB" to="E3_4_EB"/>
    <trip id="106" depart="366.92" from="E4_5_WB" to="E4_7_NWB"/>
    <trip id="107" depart="370.38" from="E2_3_EB" to="E6_7_NEB"/>
    <trip id="108" depart="373.85" from="E4_7_NWB" to="E6_7_NEB"/>
    <trip id="109" depart="377.31" from="E2_6_NB" to="E2_6_NB"/>
    <trip id="110" depart="380.77" from="E4_7_SEB" to="E2_6_SB"/>
    <trip id="111" depart="384.23" from="E4_7_SEB" to="E6_7_SWB"/>
    <trip id="112" depart="387.69" from="E3_6_SEB" to="E2_3_EB"/>
    <trip id="113" depart="391.15" from="E4_7_SEB" to="E3_6_SEB"/>
    <trip id="114" depart="394.62" from="E1_2_EB" to="E2_3_EB"/>
    <trip id="115" depart="398.08" from="E4_7_SEB" to="E4_7_NWB"/>
    <trip id="116" depart="401.54" from="E3_4_WB" to="E3_6_NWB"/>
    <trip id="117" depart="405.00" from="E2_6_SB" to="E2_6_SB"/>
    <trip id="118" depart="408.46" from="E2_6_NB" to="E3_6_NWB"/>
    <trip id="119" depart="411.92" from="E4_5_WB" to="E3_4_WB"/>
    <trip id="120" depart="415.38" from="E6_7_SWB" to="E6_7_NEB"/>
    <trip id="121" depart="418.85" from="E3_4_WB" to="E4_7_SEB"/>
    <trip id="122" depart="422.31" from="E2_6_SB" to="E3_4_WB"/>
    <trip id="123" depart="425.77" from="E6_7_NEB" to="E2_3_EB"/>
    <trip id="124" depart="429.23" from="E4_7_NWB" to="E3_4_WB"/>
    <trip id="125" depart="432.69" from="E4_7_SEB" to="E3_6_NWB"/>
    <trip id="126" depart="436.15" from="E3_4_WB" to="E7_8_NEB"/>
    <trip id="127" depart="439.62" from="E4_7_SEB" to="E3_6_SEB"/>
    <trip id="128" depart="443.08" from="E6_7_SWB" to="E2_3_EB"/>
    <trip id="129" depart="446.54" from="E1_2_EB" to="E4_7_NWB"/>
    <trip id="130" depart="450.00" from="E3_4_WB" to="E2_3_EB"/>
    <trip id="131" depart="453.46" from="E6_7_NEB" to="E3_4_WB"/>
    <trip id="132" depart="456.92" from="E6_7_SWB" to="E2_6_SB"/>
    <trip id="133" depart="460.38" from="E2_3_WB" to="E2_3_EB"/>
    <trip id="134" depart="463.85" from="E3_6_NWB" to="E2_3_EB"/>
    <trip id="135" depart="467.31" from="E6_7_SWB" to="E7_8_NEB"/>
    <trip id="136" depart="470.77" from="E3_6_SEB" to="E2_6_SB"/>
    <trip id="137" depart="474.23" from="E4_7_SEB" to="E3_6_SEB"/>
    <trip id="138" depart="477.69" from="E2_3_WB" to="E2_3_EB"/>
    <trip id="139" depart="481.15" from="E3_4_WB" to="E2_6_NB"/>
    <trip id="140" depart="484.62" from="E4_5_WB" to="E4_7_SEB"/>
    <trip id="141" depart="488.08" from="E4_5_WB" to="E2_3_EB"/>
    <trip id="142" depart="491.54" from="E2_3_WB" to="E4_5_EB"/>
    <trip id="143" depart="495.00" from="E6_7_NEB" to="E4_7_NWB"/>
    <trip id="144" depart="498.46" from="E6_7_SWB" to="E7_8_NEB"/>
    <trip id="145" depart="501.92" from="E3_6_SEB" to="E4_5_EB"/>
    <trip id="146" depart="505.38" from="E2_3_WB" to="E3_6_SEB"/>
    <trip id="147" depart="508.85" from="E3_6_NWB" to="E3_4_WB"/>
    <trip id="148" depart="512.31" from="E2_6_SB" to="E3_6_SEB"/>
    <trip id="149" depart="515.77" from="E2_3_WB" to="E6_7_NEB"/>
    <trip id="150" depart="519.23" from="E3_4_WB" to="E3_6_SEB"/>
    <trip id="151" depart="522.69" from="E6_7_NEB" to="E6_7_NEB"/>
    <trip id="152" depart="526.15" from="E3_6_SEB" to="E3_6_SEB"/>
    <trip id="153" depart="529.62" from="E4_7_NWB" to="E3_6_NWB"/>
    <trip id="154" depart="533.08" from="E2_6_SB" to="E4_5_EB"/>
    <trip id="155" depart="536.54" from="E4_5_WB" to="E7_8_NEB"/>
    <trip id="156" depart="540.00" from="E2_6_NB" to="E3_6_NWB"/>
</routes>
