<?xml version='1.0' encoding='UTF-8'?>
<!-- generated on 2026-05-19 20:32:57.647214 by Eclipse SUMO randomTrips.py v1.26.0
<configuration>
    <net-file value="/home/miguel/6.Projects/BayesianFinalProject/sumo/networks/1st_koh.net.xml"/>
    <output-trip-file value="/home/miguel/6.Projects/BayesianFinalProject/sumo/routes/routes.rou.xml"/>
    <seed value="45038"/>
    <end value="520.0"/>
    <period value="3.466666666666667"/>
</configuration>
-->
<routes xmlns:xsi="http://www.w3.org/2001/XMLSchema-instance" xsi:noNamespaceSchemaLocation="http://sumo.dlr.de/xsd/routes_file.xsd">
    <trip id="0" depart="0.00" from="E3_4_EB" to="E6_7_NEB"/>
    <trip id="1" depart="3.47" from="E2_3_EB" to="E3_6_SEB"/>
    <trip id="2" depart="6.93" from="E6_7_NEB" to="E4_5_EB"/>
    <trip id="3" depart="10.40" from="E3_4_WB" to="E2_6_NB"/>
    <trip id="4" depart="13.87" from="E2_3_EB" to="E3_4_EB"/>
    <trip id="5" depart="17.33" from="E2_3_EB" to="E3_6_SEB"/>
    <trip id="6" depart="20.80" from="E1_2_EB" to="E2_6_SB"/>
    <trip id="7" depart="24.27" from="E2_3_EB" to="E2_3_EB"/>
    <trip id="8" depart="27.73" from="E2_3_WB" to="E2_6_NB"/>
    <trip id="9" depart="31.20" from="E4_7_NWB" to="E7_8_NEB"/>
    <trip id="10" depart="34.67" from="E3_6_SEB" to="E4_7_SEB"/>
    <trip id="11" depart="38.13" from="E3_6_NWB" to="E2_6_SB"/>
    <trip id="12" depart="41.60" from="E3_6_NWB" to="E6_7_SWB"/>
    <trip id="13" depart="45.07" from="E2_3_WB" to="E2_3_WB"/>
    <trip id="14" depart="48.53" from="E4_7_SEB" to="E4_5_EB"/>
    <trip id="15" depart="52.00" from="E6_7_SWB" to="E4_7_SEB"/>
    <trip id="16" depart="55.47" from="E2_6_NB" to="E4_5_EB"/>
    <trip id="17" depart="58.93" from="E2_6_NB" to="E2_6_SB"/>
    <trip id="18" depart="62.40" from="E4_7_SEB" to="E2_6_SB"/>
    <trip id="19" depart="65.87" from="E4_5_WB" to="E6_7_NEB"/>
    <trip id="20" depart="69.33" from="E6_7_SWB" to="E3_6_SEB"/>
    <trip id="21" depart="72.80" from="E1_2_EB" to="E3_6_NWB"/>
    <trip id="22" depart="76.27" from="E4_7_NWB" to="E2_3_WB"/>
    <trip id="23" depart="79.73" from="E2_6_NB" to="E3_4_EB"/>
    <trip id="24" depart="83.20" from="E2_6_NB" to="E3_4_EB"/>
    <trip id="25" depart="86.67" from="E2_6_SB" to="E4_7_SEB"/>
    <trip id="26" depart="90.13" from="E2_3_EB" to="E2_3_WB"/>
    <trip id="27" depart="93.60" from="E2_6_SB" to="E2_6_SB"/>
    <trip id="28" depart="97.07" from="E3_4_WB" to="E2_6_SB"/>
    <trip id="29" depart="100.53" from="E3_4_WB" to="E4_5_EB"/>
    <trip id="30" depart="104.00" from="E4_5_WB" to="E6_7_SWB"/>
    <trip id="31" depart="107.47" from="E4_7_SEB" to="E2_3_WB"/>
    <trip id="32" depart="110.93" from="E3_6_NWB" to="E4_5_EB"/>
    <trip id="33" depart="114.40" from="E4_7_SEB" to="E7_8_NEB"/>
    <trip id="34" depart="117.87" from="E4_7_NWB" to="E2_6_NB"/>
    <trip id="35" depart="121.33" from="E3_4_WB" to="E3_4_EB"/>
    <trip id="36" depart="124.80" from="E4_7_SEB" to="E2_3_EB"/>
    <trip id="37" depart="128.27" from="E3_4_EB" to="E7_8_NEB"/>
    <trip id="38" depart="131.73" from="E4_5_WB" to="E3_4_WB"/>
    <trip id="39" depart="135.20" from="E6_7_NEB" to="E4_7_NWB"/>
    <trip id="40" depart="138.67" from="E2_3_WB" to="E3_6_SEB"/>
    <trip id="41" depart="142.13" from="E4_7_NWB" to="E4_5_EB"/>
    <trip id="42" depart="145.60" from="E4_7_NWB" to="E7_8_NEB"/>
    <trip id="43" depart="149.07" from="E3_6_NWB" to="E2_3_WB"/>
    <trip id="44" depart="152.53" from="E2_3_EB" to="E3_4_EB"/>
    <trip id="45" depart="156.00" from="E4_7_SEB" to="E4_7_NWB"/>
    <trip id="46" depart="159.47" from="E2_6_SB" to="E6_7_SWB"/>
    <trip id="47" depart="162.93" from="E6_7_SWB" to="E3_4_EB"/>
    <trip id="48" depart="166.40" from="E2_6_SB" to="E3_4_EB"/>
    <trip id="49" depart="169.87" from="E3_6_SEB" to="E4_7_SEB"/>
    <trip id="50" depart="173.33" from="E2_6_SB" to="E6_7_NEB"/>
    <trip id="51" depart="176.80" from="E2_3_WB" to="E2_3_EB"/>
    <trip id="52" depart="180.27" from="E4_7_NWB" to="E4_5_EB"/>
    <trip id="53" depart="183.73" from="E4_5_WB" to="E4_7_NWB"/>
    <trip id="54" depart="187.20" from="E3_4_WB" to="E3_4_EB"/>
    <trip id="55" depart="190.67" from="E6_7_SWB" to="E3_6_SEB"/>
    <trip id="56" depart="194.13" from="E4_7_NWB" to="E4_7_NWB"/>
    <trip id="57" depart="197.60" from="E3_6_NWB" to="E3_4_WB"/>
    <trip id="58" depart="201.07" from="E1_2_EB" to="E3_4_WB"/>
    <trip id="59" depart="204.53" from="E6_7_NEB" to="E2_3_WB"/>
    <trip id="60" depart="208.00" from="E3_6_NWB" to="E3_4_WB"/>
    <trip id="61" depart="211.47" from="E1_2_EB" to="E4_5_EB"/>
    <trip id="62" depart="214.93" from="E3_4_WB" to="E4_5_EB"/>
    <trip id="63" depart="218.40" from="E3_6_SEB" to="E3_6_NWB"/>
    <trip id="64" depart="221.87" from="E1_2_EB" to="E2_3_WB"/>
    <trip id="65" depart="225.33" from="E2_3_WB" to="E3_6_NWB"/>
    <trip id="66" depart="228.80" from="E2_3_WB" to="E6_7_SWB"/>
    <trip id="67" depart="232.27" from="E1_2_EB" to="E6_7_SWB"/>
    <trip id="68" depart="235.73" from="E2_3_EB" to="E3_6_NWB"/>
    <trip id="69" depart="239.20" from="E2_3_WB" to="E2_6_SB"/>
    <trip id="70" depart="242.67" from="E2_3_WB" to="E3_4_WB"/>
    <trip id="71" depart="246.13" from="E4_7_SEB" to="E2_3_EB"/>
    <trip id="72" depart="249.60" from="E3_6_NWB" to="E3_6_SEB"/>
    <trip id="73" depart="253.07" from="E2_6_SB" to="E2_6_SB"/>
    <trip id="74" depart="256.53" from="E3_4_EB" to="E7_8_NEB"/>
    <trip id="75" depart="260.00" from="E2_6_NB" to="E3_6_SEB"/>
    <trip id="76" depart="263.47" from="E6_7_NEB" to="E4_7_NWB"/>
    <trip id="77" depart="266.93" from="E3_6_NWB" to="E3_6_NWB"/>
    <trip id="78" depart="270.40" from="E4_7_NWB" to="E2_3_EB"/>
    <trip id="79" depart="273.87" from="E4_5_WB" to="E2_6_SB"/>
    <trip id="80" depart="277.33" from="E4_5_WB" to="E6_7_SWB"/>
    <trip id="81" depart="280.80" from="E2_6_SB" to="E2_3_WB"/>
    <trip id="82" depart="284.27" from="E4_5_WB" to="E2_6_NB"/>
    <trip id="83" depart="287.73" from="E3_6_NWB" to="E4_7_NWB"/>
    <trip id="84" depart="291.20" from="E4_7_NWB" to="E3_4_EB"/>
    <trip id="85" depart="294.67" from="E4_5_WB" to="E4_7_NWB"/>
    <trip id="86" depart="298.13" from="E3_4_WB" to="E2_3_WB"/>
    <trip id="87" depart="301.60" from="E2_6_SB" to="E2_6_NB"/>
    <trip id="88" depart="305.07" from="E2_3_WB" to="E2_3_WB"/>
    <trip id="89" depart="308.53" from="E1_2_EB" to="E7_8_NEB"/>
    <trip id="90" depart="312.00" from="E3_4_WB" to="E2_6_NB"/>
    <trip id="91" depart="315.47" from="E3_4_EB" to="E3_6_NWB"/>
    <trip id="92" depart="318.93" from="E4_7_SEB" to="E6_7_NEB"/>
    <trip id="93" depart="322.40" from="E2_3_EB" to="E6_7_SWB"/>
    <trip id="94" depart="325.87" from="E4_7_NWB" to="E6_7_SWB"/>
    <trip id="95" depart="329.33" from="E3_4_WB" to="E2_3_WB"/>
    <trip id="96" depart="332.80" from="E3_4_WB" to="E4_7_SEB"/>
    <trip id="97" depart="336.27" from="E6_7_SWB" to="E3_6_NWB"/>
    <trip id="98" depart="339.73" from="E4_5_WB" to="E2_6_NB"/>
    <trip id="99" depart="343.20" from="E6_7_SWB" to="E7_8_NEB"/>
    <trip id="100" depart="346.67" from="E2_6_SB" to="E3_4_EB"/>
    <trip id="101" depart="350.13" from="E2_3_EB" to="E2_3_WB"/>
    <trip id="102" depart="353.60" from="E3_6_NWB" to="E3_6_SEB"/>
    <trip id="103" depart="357.07" from="E1_2_EB" to="E2_3_EB"/>
    <vehicle id="agent" depart="360">
        <route edges="E1_2_EB E2_3_EB E3_4_EB E4_7_NWB E7_8_NEB"/>
    </vehicle>
    <trip id="104" depart="360.53" from="E3_4_WB" to="E4_5_EB"/>
    <trip id="105" depart="364.00" from="E4_5_WB" to="E2_3_EB"/>
    <trip id="106" depart="367.47" from="E2_3_WB" to="E2_6_SB"/>
    <trip id="107" depart="370.93" from="E3_4_EB" to="E3_6_SEB"/>
    <trip id="108" depart="374.40" from="E3_4_EB" to="E7_8_NEB"/>
    <trip id="109" depart="377.87" from="E2_6_NB" to="E6_7_NEB"/>
    <trip id="110" depart="381.33" from="E4_7_NWB" to="E2_3_EB"/>
    <trip id="111" depart="384.80" from="E2_6_SB" to="E6_7_SWB"/>
    <trip id="112" depart="388.27" from="E4_5_WB" to="E4_7_SEB"/>
    <trip id="113" depart="391.73" from="E3_6_NWB" to="E4_7_NWB"/>
    <trip id="114" depart="395.20" from="E2_6_SB" to="E6_7_SWB"/>
    <trip id="115" depart="398.67" from="E4_7_SEB" to="E7_8_NEB"/>
    <trip id="116" depart="402.13" from="E4_7_NWB" to="E3_4_WB"/>
    <trip id="117" depart="405.60" from="E4_5_WB" to="E2_6_SB"/>
    <trip id="118" depart="409.07" from="E3_4_EB" to="E4_7_SEB"/>
    <trip id="119" depart="412.53" from="E3_4_WB" to="E3_6_NWB"/>
    <trip id="120" depart="416.00" from="E3_4_EB" to="E7_8_NEB"/>
    <trip id="121" depart="419.47" from="E2_6_SB" to="E2_3_EB"/>
    <trip id="122" depart="422.93" from="E1_2_EB" to="E6_7_SWB"/>
    <trip id="123" depart="426.40" from="E2_6_NB" to="E4_7_NWB"/>
    <trip id="124" depart="429.87" from="E3_4_WB" to="E4_7_NWB"/>
    <trip id="125" depart="433.33" from="E4_7_NWB" to="E2_6_SB"/>
    <trip id="126" depart="436.80" from="E3_4_WB" to="E6_7_SWB"/>
    <trip id="127" depart="440.27" from="E1_2_EB" to="E6_7_SWB"/>
    <trip id="128" depart="443.73" from="E3_6_SEB" to="E4_7_SEB"/>
    <trip id="129" depart="447.20" from="E2_6_NB" to="E6_7_NEB"/>
    <trip id="130" depart="450.67" from="E3_4_WB" to="E3_6_NWB"/>
    <trip id="131" depart="454.13" from="E2_3_EB" to="E4_7_SEB"/>
    <trip id="132" depart="457.60" from="E2_3_EB" to="E3_4_EB"/>
    <trip id="133" depart="461.07" from="E6_7_SWB" to="E4_7_SEB"/>
    <trip id="134" depart="464.53" from="E4_7_SEB" to="E3_4_WB"/>
    <trip id="135" depart="468.00" from="E2_6_NB" to="E2_6_NB"/>
    <trip id="136" depart="471.47" from="E2_3_WB" to="E6_7_NEB"/>
    <trip id="137" depart="474.93" from="E3_6_SEB" to="E2_6_SB"/>
    <trip id="138" depart="478.40" from="E4_7_NWB" to="E3_6_SEB"/>
    <trip id="139" depart="481.87" from="E1_2_EB" to="E3_6_SEB"/>
    <trip id="140" depart="485.33" from="E2_6_SB" to="E4_5_EB"/>
    <trip id="141" depart="488.80" from="E6_7_NEB" to="E6_7_NEB"/>
    <trip id="142" depart="492.27" from="E2_3_EB" to="E3_4_EB"/>
    <trip id="143" depart="495.73" from="E2_6_SB" to="E2_3_EB"/>
    <trip id="144" depart="499.20" from="E2_6_SB" to="E3_4_WB"/>
    <trip id="145" depart="502.67" from="E4_7_NWB" to="E6_7_NEB"/>
    <trip id="146" depart="506.13" from="E2_6_SB" to="E4_7_NWB"/>
    <trip id="147" depart="509.60" from="E2_3_WB" to="E2_6_NB"/>
    <trip id="148" depart="513.07" from="E3_4_EB" to="E2_3_WB"/>
    <trip id="149" depart="516.53" from="E4_5_WB" to="E4_5_EB"/>
    <trip id="150" depart="520.00" from="E3_6_NWB" to="E3_6_NWB"/>
</routes>
